
*****
***** Welcome to the Xyce(TM) Parallel Electronic Simulator
*****
***** This is version Xyce DEVELOPMENT-202603192040-opensource
***** Date: Fri Mar 20 19:29:27 PDT 2026


***** Executing netlist FUSED_E_delay_tran_04v.cir

***** Reading and parsing netlist...
Netlist warning in file
 /Users/bruce/CLAUDE/asap5/spice/xyce_models/pmos_slvt_tt_cal.pm at or near
 line 41
 No model parameter VERSION found for model PMOS_SLVT of type PMOS, parameter
 ignored.
Netlist warning in file
 /Users/bruce/CLAUDE/asap5/spice/xyce_models/pmos_slvt_tt_cal.pm at or near
 line 41
 Device model PMOS_SLVT: ADMSbsimcmg: Parameter LRSD value 0 out of range ] 0,
  (+inf) [
Netlist warning in file
 /Users/bruce/CLAUDE/asap5/spice/xyce_models/nmos_slvt_tt_cal.pm at or near
 line 41
 No model parameter VERSION found for model NMOS_SLVT of type NMOS, parameter
 ignored.
Maximum warning count has been exceeded and will no longer be displayed
***** Setting up topology...

***** Device Count Summary ...
       C level 1 (Capacitor)                  13
       M level 107 (BSIM-CMG FINFET v107.0.0) 38
       V level 1 (Independent Voltage Source)  5
       -----------------------------------------
       Total Devices                          56
***** Setting up matrix structure...
***** Number of Unknowns = 105
***** Initializing...

***** Beginning DC Operating Point Calculation...

Netlist info in file FUSED_E_delay_tran_04v.cir at or near line 61
 Device instance MP_E_IO0: Fatal: DROUT_i = %e is non-positive. 0 
 
Netlist info in file FUSED_E_delay_tran_04v.cir at or near line 57
 Device instance MP2_E_N0: Fatal: DROUT_i = %e is non-positive. 0 
 
Netlist info in file FUSED_E_delay_tran_04v.cir at or near line 56
 Device instance MP1_E_N0: Fatal: DROUT_i = %e is non-positive. 0 
 
Maximum informational count has been exceeded and will no longer be displayed
***** Beginning Transient Calculation...

***** Percent complete: 1.29167 %
***** Current system time: Fri Mar 20 19:29:27 2026
***** Estimated time to completion:  5 sec.

***** Percent complete: 2.625 %
***** Current system time: Fri Mar 20 19:29:27 2026
***** Estimated time to completion:  2 sec.

***** Percent complete: 5.29167 %
***** Current system time: Fri Mar 20 19:29:27 2026
***** Estimated time to completion:  1 sec.

***** Percent complete: 10.625 %
***** Current system time: Fri Mar 20 19:29:27 2026
***** Estimated time to completion:  0 sec.

***** Percent complete: 16.6667 %
***** Current system time: Fri Mar 20 19:29:27 2026
***** Estimated time to completion:  0 sec.

***** Percent complete: 17.7449 %
***** Current system time: Fri Mar 20 19:29:27 2026
***** Estimated time to completion:  0 sec.

***** Percent complete: 19.3647 %
***** Current system time: Fri Mar 20 19:29:27 2026
***** Estimated time to completion:  0 sec.

***** Percent complete: 20.6606 %
***** Current system time: Fri Mar 20 19:29:27 2026
***** Estimated time to completion:  0 sec.

***** Percent complete: 21.6926 %
***** Current system time: Fri Mar 20 19:29:27 2026
***** Estimated time to completion:  0 sec.

***** Percent complete: 22.8448 %
***** Current system time: Fri Mar 20 19:29:27 2026
***** Estimated time to completion:  0 sec.

***** Percent complete: 23.997 %
***** Current system time: Fri Mar 20 19:29:27 2026
***** Estimated time to completion:  0 sec.

***** Percent complete: 25.1492 %
***** Current system time: Fri Mar 20 19:29:27 2026
***** Estimated time to completion:  0 sec.

***** Percent complete: 26.3014 %
***** Current system time: Fri Mar 20 19:29:27 2026
***** Estimated time to completion:  0 sec.

***** Percent complete: 27.4536 %
***** Current system time: Fri Mar 20 19:29:27 2026
***** Estimated time to completion:  0 sec.

***** Percent complete: 28.5187 %
***** Current system time: Fri Mar 20 19:29:27 2026
***** Estimated time to completion:  0 sec.

***** Percent complete: 29.881 %
***** Current system time: Fri Mar 20 19:29:27 2026
***** Estimated time to completion:  0 sec.

***** Percent complete: 31.2432 %
***** Current system time: Fri Mar 20 19:29:27 2026
***** Estimated time to completion:  0 sec.

***** Percent complete: 32.6054 %
***** Current system time: Fri Mar 20 19:29:27 2026
***** Estimated time to completion:  0 sec.

***** Percent complete: 33.9676 %
***** Current system time: Fri Mar 20 19:29:27 2026
***** Estimated time to completion:  0 sec.

***** Percent complete: 36.692 %
***** Current system time: Fri Mar 20 19:29:27 2026
***** Estimated time to completion:  0 sec.

***** Percent complete: 39.4164 %
***** Current system time: Fri Mar 20 19:29:27 2026
***** Estimated time to completion:  0 sec.

***** Percent complete: 40.6485 %
***** Current system time: Fri Mar 20 19:29:27 2026
***** Estimated time to completion:  0 sec.

***** Percent complete: 42.2913 %
***** Current system time: Fri Mar 20 19:29:27 2026
***** Estimated time to completion:  0 sec.

***** Percent complete: 43.6825 %
***** Current system time: Fri Mar 20 19:29:27 2026
***** Estimated time to completion:  0 sec.

***** Percent complete: 44.9186 %
***** Current system time: Fri Mar 20 19:29:27 2026
***** Estimated time to completion:  0 sec.

***** Percent complete: 46.1546 %
***** Current system time: Fri Mar 20 19:29:27 2026
***** Estimated time to completion:  0 sec.

***** Percent complete: 47.3906 %
***** Current system time: Fri Mar 20 19:29:27 2026
***** Estimated time to completion:  0 sec.

***** Percent complete: 48.6266 %
***** Current system time: Fri Mar 20 19:29:27 2026
***** Estimated time to completion:  0 sec.

***** Percent complete: 50.73 %
***** Current system time: Fri Mar 20 19:29:27 2026
***** Estimated time to completion:  0 sec.

***** Percent complete: 51.8171 %
***** Current system time: Fri Mar 20 19:29:27 2026
***** Estimated time to completion:  0 sec.

***** Percent complete: 52.9043 %
***** Current system time: Fri Mar 20 19:29:27 2026
***** Estimated time to completion:  0 sec.

***** Percent complete: 53.9915 %
***** Current system time: Fri Mar 20 19:29:27 2026
***** Estimated time to completion:  0 sec.

***** Percent complete: 55.0618 %
***** Current system time: Fri Mar 20 19:29:27 2026
***** Estimated time to completion:  0 sec.

***** Percent complete: 56.7031 %
***** Current system time: Fri Mar 20 19:29:27 2026
***** Estimated time to completion:  0 sec.

***** Percent complete: 58.0852 %
***** Current system time: Fri Mar 20 19:29:27 2026
***** Estimated time to completion:  0 sec.

***** Percent complete: 59.4674 %
***** Current system time: Fri Mar 20 19:29:27 2026
***** Estimated time to completion:  0 sec.

***** Percent complete: 62.2317 %
***** Current system time: Fri Mar 20 19:29:27 2026
***** Estimated time to completion:  0 sec.

***** Percent complete: 64.996 %
***** Current system time: Fri Mar 20 19:29:27 2026
***** Estimated time to completion:  0 sec.

***** Percent complete: 67.3958 %
***** Current system time: Fri Mar 20 19:29:27 2026
***** Estimated time to completion:  0 sec.

***** Percent complete: 68.4189 %
***** Current system time: Fri Mar 20 19:29:27 2026
***** Estimated time to completion:  0 sec.

***** Percent complete: 69.4419 %
***** Current system time: Fri Mar 20 19:29:27 2026
***** Estimated time to completion:  0 sec.

***** Percent complete: 70.4649 %
***** Current system time: Fri Mar 20 19:29:27 2026
***** Estimated time to completion:  0 sec.

***** Percent complete: 71.488 %
***** Current system time: Fri Mar 20 19:29:27 2026
***** Estimated time to completion:  0 sec.

***** Percent complete: 72.511 %
***** Current system time: Fri Mar 20 19:29:27 2026
***** Estimated time to completion:  0 sec.

***** Percent complete: 73.534 %
***** Current system time: Fri Mar 20 19:29:27 2026
***** Estimated time to completion:  0 sec.

***** Percent complete: 74.557 %
***** Current system time: Fri Mar 20 19:29:27 2026
***** Estimated time to completion:  0 sec.

***** Percent complete: 75.5801 %
***** Current system time: Fri Mar 20 19:29:27 2026
***** Estimated time to completion:  0 sec.

***** Percent complete: 77.6261 %
***** Current system time: Fri Mar 20 19:29:27 2026
***** Estimated time to completion:  0 sec.

***** Percent complete: 81.7183 %
***** Current system time: Fri Mar 20 19:29:27 2026
***** Estimated time to completion:  0 sec.

***** Percent complete: 89.9025 %
***** Current system time: Fri Mar 20 19:29:27 2026
***** Estimated time to completion:  0 sec.

***** Percent complete: 96.9483 %
***** Current system time: Fri Mar 20 19:29:27 2026
***** Estimated time to completion:  0 sec.

***** Problem read in and set up time: 0.00478911 seconds
 ***** DCOP time: 0.071099 seconds.  Breakdown follows:
	Number Successful Steps Taken:		1
	Number Failed Steps Attempted:		0
	Number Jacobians Evaluated:		122
	Number Linear Solves:			122
	Number Failed Linear Solves:		0
	Number Residual Evaluations:		173
	Number Nonlinear Convergence Failures:	0
	Total Residual Load Time:		0.0584395 seconds
	Total Jacobian Load Time:		0.00102186 seconds
	Total Linear Solution Time:		0.00649381 seconds

 ***** Transient Stepping time: 0.174102 seconds.  Breakdown follows:
	Number Successful Steps Taken:		122
	Number Failed Steps Attempted:		13
	Number Jacobians Evaluated:		359
	Number Linear Solves:			359
	Number Failed Linear Solves:		0
	Number Residual Evaluations:		494
	Number Nonlinear Convergence Failures:	0
	Total Residual Load Time:		0.147075 seconds
	Total Jacobian Load Time:		0.00454855 seconds
	Total Linear Solution Time:		0.00776172 seconds


***** Solution Summary *****
	Number Successful Steps Taken:		123
	Number Failed Steps Attempted:		13
	Number Jacobians Evaluated:		481
	Number Linear Solves:			481
	Number Failed Linear Solves:		0
	Number Residual Evaluations:		667
	Number Nonlinear Convergence Failures:	0
	Total Residual Load Time:		0.205515 seconds
	Total Jacobian Load Time:		0.00557041 seconds
	Total Linear Solution Time:		0.0142555 seconds


 ***** Measure Functions ***** 

TPD_OH1 = 5.64240e-10 with targ = 7.66740e-10 and trig = 2.02500e-10

I_AVG = -1.41896e-06
Measure Start Time= 0.00000e+00	Measure End Time= 1.20000e-09

I_SWITCH = -2.47981e-06
Measure Start Time= 2.00000e-10	Measure End Time= 8.00000e-10

I_PEAK = 1.10456e-05 at time = 2.00602e-10
Measure Start Time= 2.00000e-10	Measure End Time= 4.00000e-10


***** Total Simulation Solvers Run Time: 0.249263 seconds
***** Total Elapsed Run Time:            0.254053 seconds
*****
***** End of Xyce(TM) Simulation
*****

Timing summary of 1 processor
                 Stats                   Count       CPU Time              Wall Time
---------------------------------------- ----- --------------------- ---------------------
Xyce                                         1        0.106 (100.0%)        0.256 (100.0%)
  Analysis                                   1        0.102 (96.35%)        0.249 (97.18%)
    Transient                                1        0.102 (96.34%)        0.249 (97.18%)
      Nonlinear Solve                      136        0.099 (93.69%)        0.234 (91.41%)
        Residual                           667        0.083 (78.06%)        0.206 (80.45%)
        Jacobian                           481        0.004 ( 3.69%)        0.006 ( 2.25%)
        Linear Solve                       481        0.007 ( 6.43%)        0.014 ( 5.64%)
      Successful DCOP Steps                  1        0.000 ( 0.07%)        0.000 ( 0.07%)
      Successful Step                      122        0.002 ( 1.50%)        0.003 ( 1.22%)
      Failed Steps                          13        0.000 (<0.01%)        0.000 (<0.01%)
  Netlist Import                             1        0.002 ( 2.25%)        0.003 ( 1.26%)
    Parse Context                            1        0.000 ( 0.47%)        0.001 ( 0.32%)
    Distribute Devices                       1        0.001 ( 1.38%)        0.002 ( 0.64%)
    Verify Devices                           1        0.000 (<0.01%)        0.000 ( 0.02%)
    Instantiate                              1        0.000 ( 0.13%)        0.000 ( 0.06%)
  Late Initialization                        1        0.001 ( 0.48%)        0.001 ( 0.31%)
    Global Indices                           1        0.000 ( 0.08%)        0.000 ( 0.04%)
  Setup Matrix Structure                     1        0.000 ( 0.09%)        0.000 ( 0.09%)

