
*****
***** Welcome to the Xyce(TM) Parallel Electronic Simulator
*****
***** This is version Xyce DEVELOPMENT-202603192040-opensource
***** Date: Fri Mar 20 19:29:27 PDT 2026


***** Executing netlist FUSED_A_delay_tran_04v.cir

***** Reading and parsing netlist...
Netlist warning in file
 /Users/bruce/CLAUDE/asap5/spice/xyce_models/pmos_slvt_tt_cal.pm at or near
 line 41
 No model parameter VERSION found for model PMOS_SLVT of type PMOS, parameter
 ignored.
Netlist warning in file
 /Users/bruce/CLAUDE/asap5/spice/xyce_models/pmos_slvt_tt_cal.pm at or near
 line 41
 Device model PMOS_SLVT: ADMSbsimcmg: Parameter LRSD value 0 out of range ] 0,
  (+inf) [
Netlist warning in file
 /Users/bruce/CLAUDE/asap5/spice/xyce_models/nmos_slvt_tt_cal.pm at or near
 line 41
 No model parameter VERSION found for model NMOS_SLVT of type NMOS, parameter
 ignored.
Maximum warning count has been exceeded and will no longer be displayed
***** Setting up topology...

***** Device Count Summary ...
       C level 1 (Capacitor)                  16
       M level 107 (BSIM-CMG FINFET v107.0.0) 48
       V level 1 (Independent Voltage Source)  5
       -----------------------------------------
       Total Devices                          69
***** Setting up matrix structure...
***** Number of Unknowns = 130
***** Initializing...

***** Beginning DC Operating Point Calculation...

Netlist info in file FUSED_A_delay_tran_04v.cir at or near line 71
 Device instance MP_A_IO1: Fatal: DROUT_i = %e is non-positive. 0 
 
Netlist info in file FUSED_A_delay_tran_04v.cir at or near line 65
 Device instance MP4_A_A1: Fatal: DROUT_i = %e is non-positive. 0 
 
Netlist info in file FUSED_A_delay_tran_04v.cir at or near line 64
 Device instance MP3_A_A1: Fatal: DROUT_i = %e is non-positive. 0 
 
Maximum informational count has been exceeded and will no longer be displayed
***** Beginning Transient Calculation...

***** Percent complete: 1.29167 %
***** Current system time: Fri Mar 20 19:29:27 2026
***** Estimated time to completion:  5 sec.

***** Percent complete: 2.625 %
***** Current system time: Fri Mar 20 19:29:27 2026
***** Estimated time to completion:  2 sec.

***** Percent complete: 5.29167 %
***** Current system time: Fri Mar 20 19:29:27 2026
***** Estimated time to completion:  1 sec.

***** Percent complete: 10.625 %
***** Current system time: Fri Mar 20 19:29:27 2026
***** Estimated time to completion:  0 sec.

***** Percent complete: 16.6667 %
***** Current system time: Fri Mar 20 19:29:27 2026
***** Estimated time to completion:  0 sec.

***** Percent complete: 17.8997 %
***** Current system time: Fri Mar 20 19:29:27 2026
***** Estimated time to completion:  0 sec.

***** Percent complete: 19.1556 %
***** Current system time: Fri Mar 20 19:29:27 2026
***** Estimated time to completion:  0 sec.

***** Percent complete: 20.1603 %
***** Current system time: Fri Mar 20 19:29:27 2026
***** Estimated time to completion:  0 sec.

***** Percent complete: 21.165 %
***** Current system time: Fri Mar 20 19:29:27 2026
***** Estimated time to completion:  0 sec.

***** Percent complete: 22.3926 %
***** Current system time: Fri Mar 20 19:29:27 2026
***** Estimated time to completion:  0 sec.

***** Percent complete: 23.515 %
***** Current system time: Fri Mar 20 19:29:27 2026
***** Estimated time to completion:  0 sec.

***** Percent complete: 24.6374 %
***** Current system time: Fri Mar 20 19:29:27 2026
***** Estimated time to completion:  0 sec.

***** Percent complete: 25.7598 %
***** Current system time: Fri Mar 20 19:29:27 2026
***** Estimated time to completion:  0 sec.

***** Percent complete: 28.0046 %
***** Current system time: Fri Mar 20 19:29:27 2026
***** Estimated time to completion:  0 sec.

***** Percent complete: 30.2493 %
***** Current system time: Fri Mar 20 19:29:27 2026
***** Estimated time to completion:  0 sec.

***** Percent complete: 34.7388 %
***** Current system time: Fri Mar 20 19:29:27 2026
***** Estimated time to completion:  0 sec.

***** Percent complete: 39.2284 %
***** Current system time: Fri Mar 20 19:29:27 2026
***** Estimated time to completion:  0 sec.

***** Percent complete: 43.7179 %
***** Current system time: Fri Mar 20 19:29:27 2026
***** Estimated time to completion:  0 sec.

***** Percent complete: 44.8038 %
***** Current system time: Fri Mar 20 19:29:27 2026
***** Estimated time to completion:  0 sec.

***** Percent complete: 45.8898 %
***** Current system time: Fri Mar 20 19:29:27 2026
***** Estimated time to completion:  0 sec.

***** Percent complete: 46.9757 %
***** Current system time: Fri Mar 20 19:29:27 2026
***** Estimated time to completion:  0 sec.

***** Percent complete: 48.0616 %
***** Current system time: Fri Mar 20 19:29:27 2026
***** Estimated time to completion:  0 sec.

***** Percent complete: 49.1476 %
***** Current system time: Fri Mar 20 19:29:27 2026
***** Estimated time to completion:  0 sec.

***** Percent complete: 50.2335 %
***** Current system time: Fri Mar 20 19:29:27 2026
***** Estimated time to completion:  0 sec.

***** Percent complete: 51.3194 %
***** Current system time: Fri Mar 20 19:29:27 2026
***** Estimated time to completion:  0 sec.

***** Percent complete: 52.4054 %
***** Current system time: Fri Mar 20 19:29:27 2026
***** Estimated time to completion:  0 sec.

***** Percent complete: 53.4913 %
***** Current system time: Fri Mar 20 19:29:27 2026
***** Estimated time to completion:  0 sec.

***** Percent complete: 54.5772 %
***** Current system time: Fri Mar 20 19:29:27 2026
***** Estimated time to completion:  0 sec.

***** Percent complete: 55.6632 %
***** Current system time: Fri Mar 20 19:29:27 2026
***** Estimated time to completion:  0 sec.

***** Percent complete: 56.7491 %
***** Current system time: Fri Mar 20 19:29:27 2026
***** Estimated time to completion:  0 sec.

***** Percent complete: 57.835 %
***** Current system time: Fri Mar 20 19:29:27 2026
***** Estimated time to completion:  0 sec.

***** Percent complete: 58.921 %
***** Current system time: Fri Mar 20 19:29:27 2026
***** Estimated time to completion:  0 sec.

***** Percent complete: 60.0069 %
***** Current system time: Fri Mar 20 19:29:27 2026
***** Estimated time to completion:  0 sec.

***** Percent complete: 61.0928 %
***** Current system time: Fri Mar 20 19:29:27 2026
***** Estimated time to completion:  0 sec.

***** Percent complete: 62.1788 %
***** Current system time: Fri Mar 20 19:29:27 2026
***** Estimated time to completion:  0 sec.

***** Percent complete: 63.2647 %
***** Current system time: Fri Mar 20 19:29:27 2026
***** Estimated time to completion:  0 sec.

***** Percent complete: 64.3506 %
***** Current system time: Fri Mar 20 19:29:27 2026
***** Estimated time to completion:  0 sec.

***** Percent complete: 66.3053 %
***** Current system time: Fri Mar 20 19:29:27 2026
***** Estimated time to completion:  0 sec.

***** Percent complete: 68.26 %
***** Current system time: Fri Mar 20 19:29:27 2026
***** Estimated time to completion:  0 sec.

***** Percent complete: 70.2147 %
***** Current system time: Fri Mar 20 19:29:27 2026
***** Estimated time to completion:  0 sec.

***** Percent complete: 72.1693 %
***** Current system time: Fri Mar 20 19:29:27 2026
***** Estimated time to completion:  0 sec.

***** Percent complete: 74.124 %
***** Current system time: Fri Mar 20 19:29:27 2026
***** Estimated time to completion:  0 sec.

***** Percent complete: 76.0787 %
***** Current system time: Fri Mar 20 19:29:27 2026
***** Estimated time to completion:  0 sec.

***** Percent complete: 78.0334 %
***** Current system time: Fri Mar 20 19:29:27 2026
***** Estimated time to completion:  0 sec.

***** Percent complete: 81.9427 %
***** Current system time: Fri Mar 20 19:29:27 2026
***** Estimated time to completion:  0 sec.

***** Percent complete: 85.1601 %
***** Current system time: Fri Mar 20 19:29:27 2026
***** Estimated time to completion:  0 sec.

***** Percent complete: 87.7193 %
***** Current system time: Fri Mar 20 19:29:27 2026
***** Estimated time to completion:  0 sec.

***** Percent complete: 90.2786 %
***** Current system time: Fri Mar 20 19:29:27 2026
***** Estimated time to completion:  0 sec.

***** Percent complete: 95.3972 %
***** Current system time: Fri Mar 20 19:29:27 2026
***** Estimated time to completion:  0 sec.

***** Problem read in and set up time: 0.00630188 seconds
 ***** DCOP time: 0.0653298 seconds.  Breakdown follows:
	Number Successful Steps Taken:		1
	Number Failed Steps Attempted:		0
	Number Jacobians Evaluated:		90
	Number Linear Solves:			90
	Number Failed Linear Solves:		1
	Number Residual Evaluations:		131
	Number Nonlinear Convergence Failures:	0
	Total Residual Load Time:		0.0435278 seconds
	Total Jacobian Load Time:		0.00103903 seconds
	Total Linear Solution Time:		0.00216389 seconds

 ***** Transient Stepping time: 0.202452 seconds.  Breakdown follows:
	Number Successful Steps Taken:		104
	Number Failed Steps Attempted:		12
	Number Jacobians Evaluated:		431
	Number Linear Solves:			431
	Number Failed Linear Solves:		0
	Number Residual Evaluations:		547
	Number Nonlinear Convergence Failures:	3
	Total Residual Load Time:		0.162562 seconds
	Total Jacobian Load Time:		0.00369167 seconds
	Total Linear Solution Time:		0.0155296 seconds


***** Solution Summary *****
	Number Successful Steps Taken:		105
	Number Failed Steps Attempted:		12
	Number Jacobians Evaluated:		521
	Number Linear Solves:			521
	Number Failed Linear Solves:		1
	Number Residual Evaluations:		678
	Number Nonlinear Convergence Failures:	3
	Total Residual Load Time:		0.20609 seconds
	Total Jacobian Load Time:		0.0047307 seconds
	Total Linear Solution Time:		0.0176935 seconds


 ***** Measure Functions ***** 

TPD_OH1 = 6.83534e-10 with targ = 8.86034e-10 and trig = 2.02500e-10

I_AVG = -2.09769e-06
Measure Start Time= 0.00000e+00	Measure End Time= 1.20000e-09

I_SWITCH = -2.22429e-06
Measure Start Time= 2.00000e-10	Measure End Time= 8.00000e-10

I_PEAK = 1.17304e-05 at time = 2.04681e-10
Measure Start Time= 2.00000e-10	Measure End Time= 4.00000e-10


***** Total Simulation Solvers Run Time: 0.268081 seconds
***** Total Elapsed Run Time:            0.274378 seconds
*****
***** End of Xyce(TM) Simulation
*****

Timing summary of 1 processor
                 Stats                   Count       CPU Time              Wall Time
---------------------------------------- ----- --------------------- ---------------------
Xyce                                         1        0.119 (100.0%)        0.275 (100.0%)
  Analysis                                   1        0.114 (95.48%)        0.268 (97.26%)
    Transient                                1        0.114 (95.48%)        0.268 (97.26%)
      Nonlinear Solve                      117        0.112 (93.87%)        0.249 (90.43%)
        Residual                           678        0.094 (78.77%)        0.206 (74.95%)
        Jacobian                           521        0.005 ( 3.89%)        0.005 ( 1.78%)
        Linear Solve                       521        0.008 ( 6.96%)        0.018 ( 6.49%)
      Successful DCOP Steps                  1        0.000 ( 0.07%)        0.000 ( 0.07%)
      Successful Step                      104        0.001 ( 0.92%)        0.016 ( 5.95%)
      Failed Steps                          12        0.000 ( 0.01%)        0.000 (<0.01%)
        Nonlinear Failure                    3        0.000 (<0.01%)        0.000 ( 0.00%)
  Netlist Import                             1        0.003 ( 2.70%)        0.004 ( 1.46%)
    Parse Context                            1        0.000 ( 0.42%)        0.001 ( 0.30%)
    Distribute Devices                       1        0.002 ( 1.73%)        0.002 ( 0.81%)
    Verify Devices                           1        0.000 (<0.01%)        0.000 (<0.01%)
    Instantiate                              1        0.000 ( 0.30%)        0.000 ( 0.14%)
  Late Initialization                        1        0.001 ( 0.99%)        0.002 ( 0.55%)
    Global Indices                           1        0.000 ( 0.17%)        0.000 ( 0.08%)
  Setup Matrix Structure                     1        0.000 ( 0.20%)        0.000 ( 0.11%)

