
*****
***** Welcome to the Xyce(TM) Parallel Electronic Simulator
*****
***** This is version Xyce DEVELOPMENT-202603192040-opensource
***** Date: Fri Mar 20 19:29:27 PDT 2026


***** Executing netlist FUSED_F_delay_tran_04v.cir

***** Reading and parsing netlist...
Netlist warning in file
 /Users/bruce/CLAUDE/asap5/spice/xyce_models/pmos_slvt_tt_cal.pm at or near
 line 41
 No model parameter VERSION found for model PMOS_SLVT of type PMOS, parameter
 ignored.
Netlist warning in file
 /Users/bruce/CLAUDE/asap5/spice/xyce_models/pmos_slvt_tt_cal.pm at or near
 line 41
 Device model PMOS_SLVT: ADMSbsimcmg: Parameter LRSD value 0 out of range ] 0,
  (+inf) [
Netlist warning in file
 /Users/bruce/CLAUDE/asap5/spice/xyce_models/nmos_slvt_tt_cal.pm at or near
 line 41
 No model parameter VERSION found for model NMOS_SLVT of type NMOS, parameter
 ignored.
Maximum warning count has been exceeded and will no longer be displayed
***** Setting up topology...

***** Device Count Summary ...
       C level 1 (Capacitor)                  13
       M level 107 (BSIM-CMG FINFET v107.0.0) 42
       V level 1 (Independent Voltage Source)  5
       -----------------------------------------
       Total Devices                          60
***** Setting up matrix structure...
***** Number of Unknowns = 115
***** Initializing...

***** Beginning DC Operating Point Calculation...

Netlist info in file FUSED_F_delay_tran_04v.cir at or near line 63
 Device instance MP2_F_A1: Fatal: DROUT_i = %e is non-positive. 0 
 
Netlist info in file FUSED_F_delay_tran_04v.cir at or near line 62
 Device instance MP1_F_A1: Fatal: DROUT_i = %e is non-positive. 0 
 
Netlist info in file FUSED_F_delay_tran_04v.cir at or near line 57
 Device instance MP2_F_O2: Fatal: DROUT_i = %e is non-positive. 0 
 
Maximum informational count has been exceeded and will no longer be displayed
***** Beginning Transient Calculation...

***** Percent complete: 1.29167 %
***** Current system time: Fri Mar 20 19:29:27 2026
***** Estimated time to completion:  7 sec.

***** Percent complete: 2.625 %
***** Current system time: Fri Mar 20 19:29:27 2026
***** Estimated time to completion:  3 sec.

***** Percent complete: 5.29167 %
***** Current system time: Fri Mar 20 19:29:27 2026
***** Estimated time to completion:  1 sec.

***** Percent complete: 10.625 %
***** Current system time: Fri Mar 20 19:29:27 2026
***** Estimated time to completion:  0 sec.

***** Percent complete: 16.6667 %
***** Current system time: Fri Mar 20 19:29:27 2026
***** Estimated time to completion:  0 sec.

***** Percent complete: 17.723 %
***** Current system time: Fri Mar 20 19:29:27 2026
***** Estimated time to completion:  0 sec.

***** Percent complete: 18.7244 %
***** Current system time: Fri Mar 20 19:29:27 2026
***** Estimated time to completion:  0 sec.

***** Percent complete: 20.0597 %
***** Current system time: Fri Mar 20 19:29:27 2026
***** Estimated time to completion:  0 sec.

***** Percent complete: 21.3949 %
***** Current system time: Fri Mar 20 19:29:27 2026
***** Estimated time to completion:  0 sec.

***** Percent complete: 22.4167 %
***** Current system time: Fri Mar 20 19:29:27 2026
***** Estimated time to completion:  0 sec.

***** Percent complete: 23.4385 %
***** Current system time: Fri Mar 20 19:29:27 2026
***** Estimated time to completion:  0 sec.

***** Percent complete: 24.6648 %
***** Current system time: Fri Mar 20 19:29:27 2026
***** Estimated time to completion:  0 sec.

***** Percent complete: 25.891 %
***** Current system time: Fri Mar 20 19:29:27 2026
***** Estimated time to completion:  0 sec.

***** Percent complete: 27.4442 %
***** Current system time: Fri Mar 20 19:29:27 2026
***** Estimated time to completion:  0 sec.

***** Percent complete: 28.631 %
***** Current system time: Fri Mar 20 19:29:27 2026
***** Estimated time to completion:  0 sec.

***** Percent complete: 29.9552 %
***** Current system time: Fri Mar 20 19:29:27 2026
***** Estimated time to completion:  0 sec.

***** Percent complete: 31.1971 %
***** Current system time: Fri Mar 20 19:29:27 2026
***** Estimated time to completion:  0 sec.

***** Percent complete: 32.8529 %
***** Current system time: Fri Mar 20 19:29:27 2026
***** Estimated time to completion:  0 sec.

***** Percent complete: 34.5087 %
***** Current system time: Fri Mar 20 19:29:27 2026
***** Estimated time to completion:  0 sec.

***** Percent complete: 36.1645 %
***** Current system time: Fri Mar 20 19:29:27 2026
***** Estimated time to completion:  0 sec.

***** Percent complete: 39.4761 %
***** Current system time: Fri Mar 20 19:29:27 2026
***** Estimated time to completion:  0 sec.

***** Percent complete: 41.0864 %
***** Current system time: Fri Mar 20 19:29:27 2026
***** Estimated time to completion:  0 sec.

***** Percent complete: 42.1599 %
***** Current system time: Fri Mar 20 19:29:27 2026
***** Estimated time to completion:  0 sec.

***** Percent complete: 43.2334 %
***** Current system time: Fri Mar 20 19:29:27 2026
***** Estimated time to completion:  0 sec.

***** Percent complete: 44.3069 %
***** Current system time: Fri Mar 20 19:29:27 2026
***** Estimated time to completion:  0 sec.

***** Percent complete: 45.3804 %
***** Current system time: Fri Mar 20 19:29:27 2026
***** Estimated time to completion:  0 sec.

***** Percent complete: 46.4539 %
***** Current system time: Fri Mar 20 19:29:27 2026
***** Estimated time to completion:  0 sec.

***** Percent complete: 47.5274 %
***** Current system time: Fri Mar 20 19:29:27 2026
***** Estimated time to completion:  0 sec.

***** Percent complete: 48.6009 %
***** Current system time: Fri Mar 20 19:29:27 2026
***** Estimated time to completion:  0 sec.

***** Percent complete: 49.6745 %
***** Current system time: Fri Mar 20 19:29:27 2026
***** Estimated time to completion:  0 sec.

***** Percent complete: 51.8215 %
***** Current system time: Fri Mar 20 19:29:27 2026
***** Estimated time to completion:  0 sec.

***** Percent complete: 53.9685 %
***** Current system time: Fri Mar 20 19:29:27 2026
***** Estimated time to completion:  0 sec.

***** Percent complete: 55.9008 %
***** Current system time: Fri Mar 20 19:29:27 2026
***** Estimated time to completion:  0 sec.

***** Percent complete: 57.8331 %
***** Current system time: Fri Mar 20 19:29:27 2026
***** Estimated time to completion:  0 sec.

***** Percent complete: 59.7655 %
***** Current system time: Fri Mar 20 19:29:27 2026
***** Estimated time to completion:  0 sec.

***** Percent complete: 61.6978 %
***** Current system time: Fri Mar 20 19:29:27 2026
***** Estimated time to completion:  0 sec.

***** Percent complete: 63.4044 %
***** Current system time: Fri Mar 20 19:29:27 2026
***** Estimated time to completion:  0 sec.

***** Percent complete: 64.9403 %
***** Current system time: Fri Mar 20 19:29:27 2026
***** Estimated time to completion:  0 sec.

***** Percent complete: 66.4762 %
***** Current system time: Fri Mar 20 19:29:27 2026
***** Estimated time to completion:  0 sec.

***** Percent complete: 68.0121 %
***** Current system time: Fri Mar 20 19:29:27 2026
***** Estimated time to completion:  0 sec.

***** Percent complete: 69.548 %
***** Current system time: Fri Mar 20 19:29:27 2026
***** Estimated time to completion:  0 sec.

***** Percent complete: 72.6198 %
***** Current system time: Fri Mar 20 19:29:27 2026
***** Estimated time to completion:  0 sec.

***** Percent complete: 75.6917 %
***** Current system time: Fri Mar 20 19:29:27 2026
***** Estimated time to completion:  0 sec.

***** Percent complete: 78.7635 %
***** Current system time: Fri Mar 20 19:29:27 2026
***** Estimated time to completion:  0 sec.

***** Percent complete: 81.5281 %
***** Current system time: Fri Mar 20 19:29:27 2026
***** Estimated time to completion:  0 sec.

***** Percent complete: 83.7414 %
***** Current system time: Fri Mar 20 19:29:27 2026
***** Estimated time to completion:  0 sec.

***** Percent complete: 85.9546 %
***** Current system time: Fri Mar 20 19:29:27 2026
***** Estimated time to completion:  0 sec.

***** Percent complete: 90.3811 %
***** Current system time: Fri Mar 20 19:29:27 2026
***** Estimated time to completion:  0 sec.

***** Percent complete: 94.3649 %
***** Current system time: Fri Mar 20 19:29:27 2026
***** Estimated time to completion:  0 sec.

***** Problem read in and set up time: 0.0148299 seconds
 ***** DCOP time: 0.090168 seconds.  Breakdown follows:
	Number Successful Steps Taken:		1
	Number Failed Steps Attempted:		0
	Number Jacobians Evaluated:		102
	Number Linear Solves:			102
	Number Failed Linear Solves:		0
	Number Residual Evaluations:		145
	Number Nonlinear Convergence Failures:	0
	Total Residual Load Time:		0.0532687 seconds
	Total Jacobian Load Time:		0.00107908 seconds
	Total Linear Solution Time:		0.00499988 seconds

 ***** Transient Stepping time: 0.068707 seconds.  Breakdown follows:
	Number Successful Steps Taken:		95
	Number Failed Steps Attempted:		5
	Number Jacobians Evaluated:		214
	Number Linear Solves:			214
	Number Failed Linear Solves:		0
	Number Residual Evaluations:		314
	Number Nonlinear Convergence Failures:	0
	Total Residual Load Time:		0.0546765 seconds
	Total Jacobian Load Time:		0.00264907 seconds
	Total Linear Solution Time:		0.0046711 seconds


***** Solution Summary *****
	Number Successful Steps Taken:		96
	Number Failed Steps Attempted:		5
	Number Jacobians Evaluated:		316
	Number Linear Solves:			316
	Number Failed Linear Solves:		0
	Number Residual Evaluations:		459
	Number Nonlinear Convergence Failures:	0
	Total Residual Load Time:		0.107945 seconds
	Total Jacobian Load Time:		0.00372815 seconds
	Total Linear Solution Time:		0.00967097 seconds


 ***** Measure Functions ***** 

TPD_OH1 = 6.56750e-10 with targ = 8.59250e-10 and trig = 2.02500e-10

I_AVG = -1.96974e-06
Measure Start Time= 0.00000e+00	Measure End Time= 1.20000e-09

I_SWITCH = -2.42762e-06
Measure Start Time= 2.00000e-10	Measure End Time= 8.00000e-10

I_PEAK = 1.10352e-05 at time = 2.00618e-10
Measure Start Time= 2.00000e-10	Measure End Time= 4.00000e-10


***** Total Simulation Solvers Run Time: 0.159184 seconds
***** Total Elapsed Run Time:            0.174014 seconds
*****
***** End of Xyce(TM) Simulation
*****

Timing summary of 1 processor
                 Stats                   Count       CPU Time              Wall Time
---------------------------------------- ----- --------------------- ---------------------
Xyce                                         1        0.085 (100.0%)        0.175 (100.0%)
  Analysis                                   1        0.081 (95.73%)        0.159 (91.04%)
    Transient                                1        0.081 (95.73%)        0.159 (91.04%)
      Nonlinear Solve                      101        0.079 (93.01%)        0.136 (77.65%)
        Residual                           459        0.066 (77.28%)        0.109 (62.24%)
        Jacobian                           316        0.003 ( 3.58%)        0.004 ( 2.20%)
        Linear Solve                       316        0.005 ( 6.12%)        0.010 ( 5.61%)
      Successful DCOP Steps                  1        0.000 ( 0.25%)        0.018 (10.41%)
      Successful Step                       95        0.001 ( 1.49%)        0.003 ( 1.94%)
      Failed Steps                           5        0.000 (<0.01%)        0.000 (<0.01%)
  Netlist Import                             1        0.003 ( 2.97%)        0.014 ( 7.89%)
    Parse Context                            1        0.001 ( 0.60%)        0.001 ( 0.57%)
    Distribute Devices                       1        0.002 ( 1.86%)        0.011 ( 6.10%)
    Verify Devices                           1        0.000 (<0.01%)        0.000 (<0.01%)
    Instantiate                              1        0.000 ( 0.17%)        0.000 ( 0.09%)
  Late Initialization                        1        0.001 ( 0.61%)        0.001 ( 0.35%)
    Global Indices                           1        0.000 ( 0.11%)        0.000 ( 0.06%)
  Setup Matrix Structure                     1        0.000 ( 0.12%)        0.000 ( 0.07%)

