
*****
***** Welcome to the Xyce(TM) Parallel Electronic Simulator
*****
***** This is version Xyce DEVELOPMENT-202603192040-opensource
***** Date: Fri Mar 20 19:29:27 PDT 2026


***** Executing netlist ppa_tran_e_04v.cir

***** Reading and parsing netlist...
Netlist warning in file
 /Users/bruce/CLAUDE/asap5/spice/xyce_models/pmos_slvt_tt_cal.pm at or near
 line 41
 No model parameter VERSION found for model PMOS_SLVT of type PMOS, parameter
 ignored.
Netlist warning in file
 /Users/bruce/CLAUDE/asap5/spice/xyce_models/pmos_slvt_tt_cal.pm at or near
 line 41
 Device model PMOS_SLVT: ADMSbsimcmg: Parameter LRSD value 0 out of range ] 0,
  (+inf) [
Netlist warning in file
 /Users/bruce/CLAUDE/asap5/spice/xyce_models/nmos_slvt_tt_cal.pm at or near
 line 41
 No model parameter VERSION found for model NMOS_SLVT of type NMOS, parameter
 ignored.
Maximum warning count has been exceeded and will no longer be displayed
***** Setting up topology...

***** Device Count Summary ...
       C level 1 (Capacitor)                  13
       M level 107 (BSIM-CMG FINFET v107.0.0) 38
       V level 1 (Independent Voltage Source)  5
       -----------------------------------------
       Total Devices                          56
***** Setting up matrix structure...
***** Number of Unknowns = 105
***** Initializing...

***** Beginning DC Operating Point Calculation...

Netlist info in file ppa_tran_e_04v.cir at or near line 61
 Device instance MP_E_IO0: Fatal: DROUT_i = %e is non-positive. 0 
 
Netlist info in file ppa_tran_e_04v.cir at or near line 57
 Device instance MP2_E_N0: Fatal: DROUT_i = %e is non-positive. 0 
 
Netlist info in file ppa_tran_e_04v.cir at or near line 56
 Device instance MP1_E_N0: Fatal: DROUT_i = %e is non-positive. 0 
 
Maximum informational count has been exceeded and will no longer be displayed
***** Beginning Transient Calculation...

***** Percent complete: 1.29167 %
***** Current system time: Fri Mar 20 19:29:27 2026
***** Estimated time to completion:  6 sec.

***** Percent complete: 2.625 %
***** Current system time: Fri Mar 20 19:29:27 2026
***** Estimated time to completion:  3 sec.

***** Percent complete: 5.29167 %
***** Current system time: Fri Mar 20 19:29:27 2026
***** Estimated time to completion:  1 sec.

***** Percent complete: 10.625 %
***** Current system time: Fri Mar 20 19:29:27 2026
***** Estimated time to completion:  0 sec.

***** Percent complete: 16.6667 %
***** Current system time: Fri Mar 20 19:29:27 2026
***** Estimated time to completion:  0 sec.

***** Percent complete: 17.7449 %
***** Current system time: Fri Mar 20 19:29:27 2026
***** Estimated time to completion:  0 sec.

***** Percent complete: 19.3647 %
***** Current system time: Fri Mar 20 19:29:27 2026
***** Estimated time to completion:  0 sec.

***** Percent complete: 20.6606 %
***** Current system time: Fri Mar 20 19:29:27 2026
***** Estimated time to completion:  0 sec.

***** Percent complete: 21.6926 %
***** Current system time: Fri Mar 20 19:29:27 2026
***** Estimated time to completion:  0 sec.

***** Percent complete: 22.8448 %
***** Current system time: Fri Mar 20 19:29:27 2026
***** Estimated time to completion:  0 sec.

***** Percent complete: 23.997 %
***** Current system time: Fri Mar 20 19:29:27 2026
***** Estimated time to completion:  0 sec.

***** Percent complete: 25.1492 %
***** Current system time: Fri Mar 20 19:29:27 2026
***** Estimated time to completion:  0 sec.

***** Percent complete: 26.3014 %
***** Current system time: Fri Mar 20 19:29:27 2026
***** Estimated time to completion:  0 sec.

***** Percent complete: 27.4536 %
***** Current system time: Fri Mar 20 19:29:27 2026
***** Estimated time to completion:  0 sec.

***** Percent complete: 28.5187 %
***** Current system time: Fri Mar 20 19:29:27 2026
***** Estimated time to completion:  0 sec.

***** Percent complete: 29.881 %
***** Current system time: Fri Mar 20 19:29:27 2026
***** Estimated time to completion:  0 sec.

***** Percent complete: 31.2432 %
***** Current system time: Fri Mar 20 19:29:27 2026
***** Estimated time to completion:  0 sec.

***** Percent complete: 32.6054 %
***** Current system time: Fri Mar 20 19:29:27 2026
***** Estimated time to completion:  0 sec.

***** Percent complete: 33.9676 %
***** Current system time: Fri Mar 20 19:29:27 2026
***** Estimated time to completion:  0 sec.

***** Percent complete: 36.692 %
***** Current system time: Fri Mar 20 19:29:27 2026
***** Estimated time to completion:  0 sec.

***** Percent complete: 39.4164 %
***** Current system time: Fri Mar 20 19:29:27 2026
***** Estimated time to completion:  0 sec.

***** Percent complete: 40.6485 %
***** Current system time: Fri Mar 20 19:29:27 2026
***** Estimated time to completion:  0 sec.

***** Percent complete: 42.2913 %
***** Current system time: Fri Mar 20 19:29:27 2026
***** Estimated time to completion:  0 sec.

***** Percent complete: 43.6825 %
***** Current system time: Fri Mar 20 19:29:27 2026
***** Estimated time to completion:  0 sec.

***** Percent complete: 44.9186 %
***** Current system time: Fri Mar 20 19:29:27 2026
***** Estimated time to completion:  0 sec.

***** Percent complete: 46.1546 %
***** Current system time: Fri Mar 20 19:29:27 2026
***** Estimated time to completion:  0 sec.

***** Percent complete: 47.3906 %
***** Current system time: Fri Mar 20 19:29:27 2026
***** Estimated time to completion:  0 sec.

***** Percent complete: 48.6266 %
***** Current system time: Fri Mar 20 19:29:27 2026
***** Estimated time to completion:  0 sec.

***** Percent complete: 50.73 %
***** Current system time: Fri Mar 20 19:29:27 2026
***** Estimated time to completion:  0 sec.

***** Percent complete: 51.8171 %
***** Current system time: Fri Mar 20 19:29:27 2026
***** Estimated time to completion:  0 sec.

***** Percent complete: 52.9043 %
***** Current system time: Fri Mar 20 19:29:27 2026
***** Estimated time to completion:  0 sec.

***** Percent complete: 53.9915 %
***** Current system time: Fri Mar 20 19:29:27 2026
***** Estimated time to completion:  0 sec.

***** Percent complete: 55.0618 %
***** Current system time: Fri Mar 20 19:29:27 2026
***** Estimated time to completion:  0 sec.

***** Percent complete: 56.7031 %
***** Current system time: Fri Mar 20 19:29:27 2026
***** Estimated time to completion:  0 sec.

***** Percent complete: 58.0852 %
***** Current system time: Fri Mar 20 19:29:27 2026
***** Estimated time to completion:  0 sec.

***** Percent complete: 59.4674 %
***** Current system time: Fri Mar 20 19:29:27 2026
***** Estimated time to completion:  0 sec.

***** Percent complete: 62.2317 %
***** Current system time: Fri Mar 20 19:29:27 2026
***** Estimated time to completion:  0 sec.

***** Percent complete: 64.996 %
***** Current system time: Fri Mar 20 19:29:27 2026
***** Estimated time to completion:  0 sec.

***** Percent complete: 67.3958 %
***** Current system time: Fri Mar 20 19:29:27 2026
***** Estimated time to completion:  0 sec.

***** Percent complete: 68.4189 %
***** Current system time: Fri Mar 20 19:29:27 2026
***** Estimated time to completion:  0 sec.

***** Percent complete: 69.4419 %
***** Current system time: Fri Mar 20 19:29:27 2026
***** Estimated time to completion:  0 sec.

***** Percent complete: 70.4649 %
***** Current system time: Fri Mar 20 19:29:27 2026
***** Estimated time to completion:  0 sec.

***** Percent complete: 71.488 %
***** Current system time: Fri Mar 20 19:29:27 2026
***** Estimated time to completion:  0 sec.

***** Percent complete: 72.511 %
***** Current system time: Fri Mar 20 19:29:27 2026
***** Estimated time to completion:  0 sec.

***** Percent complete: 73.534 %
***** Current system time: Fri Mar 20 19:29:27 2026
***** Estimated time to completion:  0 sec.

***** Percent complete: 74.557 %
***** Current system time: Fri Mar 20 19:29:27 2026
***** Estimated time to completion:  0 sec.

***** Percent complete: 75.5801 %
***** Current system time: Fri Mar 20 19:29:27 2026
***** Estimated time to completion:  0 sec.

***** Percent complete: 77.6261 %
***** Current system time: Fri Mar 20 19:29:27 2026
***** Estimated time to completion:  0 sec.

***** Percent complete: 81.7183 %
***** Current system time: Fri Mar 20 19:29:27 2026
***** Estimated time to completion:  0 sec.

***** Percent complete: 89.9025 %
***** Current system time: Fri Mar 20 19:29:27 2026
***** Estimated time to completion:  0 sec.

***** Percent complete: 96.9483 %
***** Current system time: Fri Mar 20 19:29:27 2026
***** Estimated time to completion:  0 sec.

***** Problem read in and set up time: 0.005934 seconds
 ***** DCOP time: 0.0856009 seconds.  Breakdown follows:
	Number Successful Steps Taken:		1
	Number Failed Steps Attempted:		0
	Number Jacobians Evaluated:		122
	Number Linear Solves:			122
	Number Failed Linear Solves:		0
	Number Residual Evaluations:		173
	Number Nonlinear Convergence Failures:	0
	Total Residual Load Time:		0.0693433 seconds
	Total Jacobian Load Time:		0.00118756 seconds
	Total Linear Solution Time:		0.00495481 seconds

 ***** Transient Stepping time: 0.175125 seconds.  Breakdown follows:
	Number Successful Steps Taken:		122
	Number Failed Steps Attempted:		13
	Number Jacobians Evaluated:		359
	Number Linear Solves:			359
	Number Failed Linear Solves:		0
	Number Residual Evaluations:		494
	Number Nonlinear Convergence Failures:	0
	Total Residual Load Time:		0.138563 seconds
	Total Jacobian Load Time:		0.00412488 seconds
	Total Linear Solution Time:		0.0232642 seconds


***** Solution Summary *****
	Number Successful Steps Taken:		123
	Number Failed Steps Attempted:		13
	Number Jacobians Evaluated:		481
	Number Linear Solves:			481
	Number Failed Linear Solves:		0
	Number Residual Evaluations:		667
	Number Nonlinear Convergence Failures:	0
	Total Residual Load Time:		0.207906 seconds
	Total Jacobian Load Time:		0.00531244 seconds
	Total Linear Solution Time:		0.028219 seconds


 ***** Measure Functions ***** 

TPD_OH1 = 5.64240e-10 with targ = 7.66740e-10 and trig = 2.02500e-10

I_AVG = -1.41896e-06
Measure Start Time= 0.00000e+00	Measure End Time= 1.20000e-09

I_SWITCH = -2.47981e-06
Measure Start Time= 2.00000e-10	Measure End Time= 8.00000e-10

I_PEAK = 1.10456e-05 at time = 2.00602e-10
Measure Start Time= 2.00000e-10	Measure End Time= 4.00000e-10


***** Total Simulation Solvers Run Time: 0.261295 seconds
***** Total Elapsed Run Time:            0.267231 seconds
*****
***** End of Xyce(TM) Simulation
*****

Timing summary of 1 processor
                 Stats                   Count       CPU Time              Wall Time
---------------------------------------- ----- --------------------- ---------------------
Xyce                                         1        0.111 (100.0%)        0.269 (100.0%)
  Analysis                                   1        0.107 (96.70%)        0.261 (97.19%)
    Transient                                1        0.107 (96.70%)        0.261 (97.19%)
      Nonlinear Solve                      136        0.104 (94.23%)        0.254 (94.67%)
        Residual                           667        0.086 (78.09%)        0.208 (77.59%)
        Jacobian                           481        0.004 ( 3.75%)        0.006 ( 2.05%)
        Linear Solve                       481        0.007 ( 6.59%)        0.029 (10.80%)
      Successful DCOP Steps                  1        0.000 ( 0.07%)        0.000 ( 0.07%)
      Successful Step                      122        0.002 ( 1.42%)        0.004 ( 1.60%)
      Failed Steps                          13        0.000 ( 0.01%)        0.000 (<0.01%)
  Netlist Import                             1        0.002 ( 2.22%)        0.004 ( 1.58%)
    Parse Context                            1        0.000 ( 0.42%)        0.001 ( 0.32%)
    Distribute Devices                       1        0.001 ( 1.30%)        0.002 ( 0.58%)
    Verify Devices                           1        0.000 (<0.01%)        0.001 ( 0.34%)
    Instantiate                              1        0.000 ( 0.29%)        0.000 ( 0.17%)
  Late Initialization                        1        0.001 ( 0.48%)        0.001 ( 0.45%)
    Global Indices                           1        0.000 ( 0.10%)        0.001 ( 0.19%)
  Setup Matrix Structure                     1        0.000 ( 0.09%)        0.000 ( 0.05%)

