
*****
***** Welcome to the Xyce(TM) Parallel Electronic Simulator
*****
***** This is version Xyce DEVELOPMENT-202603192040-opensource
***** Date: Fri Mar 20 19:29:27 PDT 2026


***** Executing netlist xtran_e_04v.cir

***** Reading and parsing netlist...
Netlist warning in file
 /Users/bruce/CLAUDE/asap5/spice/xyce_models/pmos_slvt_tt_cal.pm at or near
 line 41
 No model parameter VERSION found for model PMOS_SLVT of type PMOS, parameter
 ignored.
Netlist warning in file
 /Users/bruce/CLAUDE/asap5/spice/xyce_models/pmos_slvt_tt_cal.pm at or near
 line 41
 Device model PMOS_SLVT: ADMSbsimcmg: Parameter LRSD value 0 out of range ] 0,
  (+inf) [
Netlist warning in file
 /Users/bruce/CLAUDE/asap5/spice/xyce_models/nmos_slvt_tt_cal.pm at or near
 line 41
 No model parameter VERSION found for model NMOS_SLVT of type NMOS, parameter
 ignored.
Maximum warning count has been exceeded and will no longer be displayed
***** Setting up topology...

***** Device Count Summary ...
       C level 1 (Capacitor)                   3
       M level 107 (BSIM-CMG FINFET v107.0.0) 38
       V level 1 (Independent Voltage Source)  6
       -----------------------------------------
       Total Devices                          47
***** Setting up matrix structure...
***** Number of Unknowns = 131
***** Initializing...

***** Beginning DC Operating Point Calculation...

Netlist info in file xtran_e_04v.cir at or near line 29
 Device instance M1013: Fatal: DROUT_i = %e is non-positive. 0 
 
Netlist info in file xtran_e_04v.cir at or near line 39
 Device instance M1023: Fatal: DROUT_i = %e is non-positive. 0 
 
Netlist info in file xtran_e_04v.cir at or near line 28
 Device instance M1012: Fatal: DROUT_i = %e is non-positive. 0 
 
Maximum informational count has been exceeded and will no longer be displayed
***** Beginning Transient Calculation...

***** Percent complete: 1.9375 %
***** Current system time: Fri Mar 20 19:29:27 2026
***** Estimated time to completion:  0 sec.

***** Percent complete: 3.9375 %
***** Current system time: Fri Mar 20 19:29:27 2026
***** Estimated time to completion:  0 sec.

***** Percent complete: 7.9375 %
***** Current system time: Fri Mar 20 19:29:27 2026
***** Estimated time to completion:  0 sec.

***** Percent complete: 15.9375 %
***** Current system time: Fri Mar 20 19:29:27 2026
***** Estimated time to completion:  0 sec.

***** Percent complete: 25 %
***** Current system time: Fri Mar 20 19:29:27 2026
***** Estimated time to completion:  0 sec.

***** Percent complete: 26.0124 %
***** Current system time: Fri Mar 20 19:29:27 2026
***** Estimated time to completion:  0 sec.

***** Percent complete: 27.3407 %
***** Current system time: Fri Mar 20 19:29:27 2026
***** Estimated time to completion:  0 sec.

***** Percent complete: 29.1118 %
***** Current system time: Fri Mar 20 19:29:27 2026
***** Estimated time to completion:  0 sec.

***** Percent complete: 32.6539 %
***** Current system time: Fri Mar 20 19:29:27 2026
***** Estimated time to completion:  0 sec.

***** Percent complete: 39.7381 %
***** Current system time: Fri Mar 20 19:29:27 2026
***** Estimated time to completion:  0 sec.

***** Percent complete: 49.7381 %
***** Current system time: Fri Mar 20 19:29:27 2026
***** Estimated time to completion:  0 sec.

***** Percent complete: 59.7381 %
***** Current system time: Fri Mar 20 19:29:27 2026
***** Estimated time to completion:  0 sec.

***** Percent complete: 69.7381 %
***** Current system time: Fri Mar 20 19:29:27 2026
***** Estimated time to completion:  0 sec.

***** Percent complete: 79.7381 %
***** Current system time: Fri Mar 20 19:29:27 2026
***** Estimated time to completion:  0 sec.

***** Percent complete: 89.7381 %
***** Current system time: Fri Mar 20 19:29:27 2026
***** Estimated time to completion:  0 sec.

***** Percent complete: 99.7381 %
***** Current system time: Fri Mar 20 19:29:27 2026
***** Estimated time to completion:  0 sec.

***** Problem read in and set up time: 0.00415397 seconds
 ***** DCOP time: 0.00548482 seconds.  Breakdown follows:
	Number Successful Steps Taken:		1
	Number Failed Steps Attempted:		0
	Number Jacobians Evaluated:		28
	Number Linear Solves:			28
	Number Failed Linear Solves:		1
	Number Residual Evaluations:		41
	Number Nonlinear Convergence Failures:	0
	Total Residual Load Time:		0.0037086 seconds
	Total Jacobian Load Time:		0.000144243 seconds
	Total Linear Solution Time:		0.000425577 seconds

 ***** Transient Stepping time: 0.0156941 seconds.  Breakdown follows:
	Number Successful Steps Taken:		31
	Number Failed Steps Attempted:		1
	Number Jacobians Evaluated:		34
	Number Linear Solves:			34
	Number Failed Linear Solves:		0
	Number Residual Evaluations:		66
	Number Nonlinear Convergence Failures:	0
	Total Residual Load Time:		0.012028 seconds
	Total Jacobian Load Time:		0.000411987 seconds
	Total Linear Solution Time:		0.000763416 seconds


***** Solution Summary *****
	Number Successful Steps Taken:		32
	Number Failed Steps Attempted:		1
	Number Jacobians Evaluated:		62
	Number Linear Solves:			62
	Number Failed Linear Solves:		1
	Number Residual Evaluations:		107
	Number Nonlinear Convergence Failures:	0
	Total Residual Load Time:		0.0157366 seconds
	Total Jacobian Load Time:		0.000556231 seconds
	Total Linear Solution Time:		0.00118899 seconds


 ***** Measure Functions ***** 

TPD_OH1 = 0.000000e+00 FAILED with targ = not found and trig = 2.025000e-10

I_AVG = -8.629265e-08
Measure Start Time= 0.000000e+00	Measure End Time= 8.000000e-10

I_SWITCH = -8.629265e-08
Measure Start Time= 2.000000e-10	Measure End Time= 6.000000e-10


***** Total Simulation Solvers Run Time: 0.0214212 seconds
***** Total Elapsed Run Time:            0.0255759 seconds
*****
***** End of Xyce(TM) Simulation
*****

Timing summary of 1 processor
                 Stats                   Count       CPU Time              Wall Time
---------------------------------------- ----- --------------------- ---------------------
Xyce                                         1        0.022 (100.0%)        0.027 (100.0%)
  Analysis                                   1        0.019 (83.35%)        0.021 (80.30%)
    Transient                                1        0.019 (83.34%)        0.021 (80.28%)
      Nonlinear Solve                       33        0.018 (78.88%)        0.019 (70.79%)
        Residual                           107        0.015 (66.80%)        0.016 (59.62%)
        Jacobian                            62        0.001 ( 2.51%)        0.001 ( 2.21%)
        Linear Solve                        62        0.001 ( 5.23%)        0.001 ( 4.57%)
      Successful DCOP Steps                  1        0.000 ( 0.62%)        0.000 ( 1.12%)
      Successful Step                       31        0.000 ( 2.06%)        0.001 ( 5.20%)
      Failed Steps                           1        0.000 (<0.01%)        0.000 (<0.01%)
  Netlist Import                             1        0.002 (10.12%)        0.003 (10.73%)
    Parse Context                            1        0.000 ( 2.03%)        0.001 ( 2.80%)
    Distribute Devices                       1        0.001 ( 6.31%)        0.001 ( 5.60%)
    Verify Devices                           1        0.000 (<0.01%)        0.000 ( 0.03%)
    Instantiate                              1        0.000 ( 0.56%)        0.000 ( 0.51%)
  Late Initialization                        1        0.001 ( 2.38%)        0.001 ( 2.35%)
    Global Indices                           1        0.000 ( 0.50%)        0.000 ( 0.43%)
  Setup Matrix Structure                     1        0.000 ( 0.53%)        0.000 ( 0.51%)

