
*****
***** Welcome to the Xyce(TM) Parallel Electronic Simulator
*****
***** This is version Xyce DEVELOPMENT-202603192040-opensource
***** Date: Thu Mar 19 21:02:23 PDT 2026


***** Executing netlist hamming_power.cir

***** Reading and parsing netlist...
Netlist warning in file
 /Users/bruce/CLAUDE/asap5/spice/xyce_models/nmos_lvt_tt.pm at or near line 41
 No model parameter VERSION found for model NMOS_LVT of type NMOS, parameter
 ignored.
Netlist warning in file
 /Users/bruce/CLAUDE/asap5/spice/xyce_models/nmos_lvt_tt.pm at or near line 41
 Device model NMOS_LVT: ADMSbsimcmg: Parameter LRSD value 0 out of range ] 0,
  (+inf) [
Netlist warning in file
 /Users/bruce/CLAUDE/asap5/spice/xyce_models/pmos_lvt_tt.pm at or near line 41
 No model parameter VERSION found for model PMOS_LVT of type PMOS, parameter
 ignored.
Netlist warning in file
 /Users/bruce/CLAUDE/asap5/spice/xyce_models/pmos_lvt_tt.pm at or near line 41
 Device model PMOS_LVT: ADMSbsimcmg: Parameter LRSD value 0 out of range ] 0,
  (+inf) [
***** Setting up topology...

Netlist warning: Voltage Node (A_0__RC) connected to only 1 device Terminal
Netlist warning: Voltage Node (B_0__RC) connected to only 1 device Terminal
Netlist warning: Voltage Node (A_1__RC) connected to only 1 device Terminal
Netlist warning: Voltage Node (B_1__RC) connected to only 1 device Terminal
Netlist warning: Voltage Node (B_2__RC) connected to only 1 device Terminal
Netlist warning: Voltage Node (A_3__RC) connected to only 1 device Terminal
Maximum warning count has been exceeded and will no longer be displayed
***** Device Count Summary ...
       C level 1 (Capacitor)                   539
       M level 107 (BSIM-CMG FINFET v107.0.0) 1564
       R level 1 (Resistor)                    266
       V level 1 (Independent Voltage Source)  130
       -------------------------------------------
       Total Devices                          2499
***** Setting up matrix structure...
***** Number of Unknowns = 4436
***** Initializing...

***** Beginning DC Operating Point Calculation...

Netlist info in file hamming_power.cir at or near line 1648
 Device instance MP1_BUF6: Fatal: DROUT_i = %e is non-positive. 0 
 
Netlist info in file hamming_power.cir at or near line 1646
 Device instance MP0_BUF6: Fatal: DROUT_i = %e is non-positive. 0 
 
Netlist info in file hamming_power.cir at or near line 1644
 Device instance MP1_BUF5: Fatal: DROUT_i = %e is non-positive. 0 
 
Netlist info in file hamming_power.cir at or near line 1642
 Device instance MP0_BUF5: Fatal: DROUT_i = %e is non-positive. 0 
 
Netlist info in file hamming_power.cir at or near line 1640
 Device instance MP1_BUF4: Fatal: DROUT_i = %e is non-positive. 0 
 
Netlist info in file hamming_power.cir at or near line 1638
 Device instance MP0_BUF4: Fatal: DROUT_i = %e is non-positive. 0 
 
Netlist info in file hamming_power.cir at or near line 1636
 Device instance MP1_BUF3: Fatal: DROUT_i = %e is non-positive. 0 
 
Netlist info in file hamming_power.cir at or near line 1634
 Device instance MP0_BUF3: Fatal: DROUT_i = %e is non-positive. 0 
 
Netlist info in file hamming_power.cir at or near line 1632
 Device instance MP1_BUF2: Fatal: DROUT_i = %e is non-positive. 0 
 
Netlist info in file hamming_power.cir at or near line 1630
 Device instance MP0_BUF2: Fatal: DROUT_i = %e is non-positive. 0 
 
Maximum informational count has been exceeded and will no longer be displayed
***** Beginning Transient Calculation...

 *** Transient failure history: 
Time        Time      Step   EstErr       Non-Linear Solver       node     node
(sec)       Step     Status  OverTol    Status    Iters  ||F||    index    name
 4.951e-09  2.304e-19  pass  8.975e-04  P:normal   3  3.570e-07   4199    A[45]
 4.951e-09  4.608e-19  fail  8.975e-04  P:near    20  3.166e-05   4250    B[19]
 4.951e-09  5.760e-20  pass  5.706e-04  P:normal   3  1.832e-07    634    IFG27_NAJ
 4.951e-09  1.152e-19  pass  8.957e-04  P:normal   2  4.399e-07    991    IFG03_X0
 4.951e-09  2.304e-19  fail  8.957e-04  F:max s   20  3.867e-02   4250    B[19]
 4.951e-09  2.880e-20  pass  1.147e-03  P:normal   3  8.576e-06    991    IFG03_X0
 4.951e-09  5.760e-20  pass  8.293e-04  P:normal   2  8.404e-07   4253    A[18]
 4.951e-09  1.152e-19  fail  8.293e-04  P:near    20  5.483e-04   4250    B[19]
 4.951e-09  1.440e-20  pass  1.546e-03  P:normal   2  1.434e-06    987    IFG03_D1
 4.951e-09  2.880e-20  pass  2.520e-05  P:normal   2  1.800e-06   4253    A[18]
 4.951e-09  5.760e-20  fail  2.520e-05  P:near    20  8.427e-04   4250    B[19]
 4.951e-09  7.200e-21  pass  1.337e-03  P:normal   2  2.629e-06   4253    A[18]
 4.951e-09  1.440e-20  pass  7.264e-04  P:normal   2  3.027e-06   4253    A[18]
 4.951e-09  2.880e-20  pass  2.181e-02  P:normal   3  2.134e-05    852    IFG12_D1
 4.951e-09  5.760e-20  fail  2.181e-02  F:max s   20  7.220e-03   4250    B[19]
 4.951e-09  7.200e-21  pass  1.286e-02  P:normal   3  1.015e-04    628    IFG27_D0
 4.951e-09  1.440e-20  pass  1.396e-02  P:normal   3  1.640e-04    627    IFG27_D1
 4.951e-09  2.880e-20  fail  1.396e-02  F:max s   20  1.007e-02    578    NOH2[30]
 4.951e-09  3.600e-21  pass  2.113e-02  P:normal   2  6.248e-05    627    IFG27_D1
 4.951e-09  7.200e-21  pass  1.377e-02  P:normal   2  6.504e-05   4253    A[18]
 4.951e-09  1.440e-20  pass  9.991e-01  P:normal  15  7.778e-04   4253    A[18]
 4.951e-09  1.143e-20  fail  9.991e-01  P:near    20  7.186e-04    657    IFG25_D1
 4.951e-09  1.429e-21  pass  4.021e-01  P:normal  20  5.118e-04    973    IFG04_D0
 4.951e-09  1.429e-21  fail  4.021e-01  F:max s   20  8.290e-03   4253    A[18]
 4.951e-09  1.786e-22  fail  4.021e-01  F:max s   20  6.862e-02   4253    A[18]
Time step too small near step number: 108  Exiting transient loop.


***** Solution Summary *****
	Number Successful Steps Taken:		109
	Number Failed Steps Attempted:		42
	Number Jacobians Evaluated:		1648
	Number Linear Solves:			1648
	Number Failed Linear Solves:		3
	Number Residual Evaluations:		1929
	Number Nonlinear Convergence Failures:	41
	Total Residual Load Time:		6.052 seconds
	Total Jacobian Load Time:		0.323 seconds
	Total Linear Solution Time:		0.572 seconds


 ***** Measure Functions ***** 

I_AVG = -9.079244e-09
Measure Start Time= 0.000000e+00	Measure End Time= 5.000000e-06

I_RMS = 1.128909e-07
Measure Start Time= 0.000000e+00	Measure End Time= 5.000000e-06

P_AVG = -4.539622e-09
Measure Start Time= 0.000000e+00	Measure End Time= 5.000000e-06

P_PEAK = 2.007771e-02 at time = 4.951272e-09
Measure Start Time= 0.000000e+00	Measure End Time= 5.000000e-06

P_SEG0 = -4.539622e-09
Measure Start Time= 0.000000e+00	Measure End Time= 5.000000e-07

P_SEG1 = 0.000000e+00 FAILED
Measure Start Time= 5.000000e-07	Measure End Time= 1.000000e-06

P_SEG2 = 0.000000e+00 FAILED
Measure Start Time= 1.000000e-06	Measure End Time= 1.500000e-06

P_SEG3 = 0.000000e+00 FAILED
Measure Start Time= 1.500000e-06	Measure End Time= 2.000000e-06

P_SEG4 = 0.000000e+00 FAILED
Measure Start Time= 2.000000e-06	Measure End Time= 2.500000e-06

P_SEG5 = 0.000000e+00 FAILED
Measure Start Time= 2.500000e-06	Measure End Time= 3.000000e-06

P_SEG6 = 0.000000e+00 FAILED
Measure Start Time= 3.000000e-06	Measure End Time= 3.500000e-06

P_SEG7 = 0.000000e+00 FAILED
Measure Start Time= 3.500000e-06	Measure End Time= 4.000000e-06

P_SEG8 = 0.000000e+00 FAILED
Measure Start Time= 4.000000e-06	Measure End Time= 4.500000e-06

P_SEG9 = 0.000000e+00 FAILED
Measure Start Time= 4.500000e-06	Measure End Time= 5.000000e-06

HD0_V0 = 4.105697e-07 for AT = 4.000000e-09

HD1_V0 = 4.999994e-01 for AT = 4.000000e-09

HD2_V0 = 4.105697e-07 for AT = 4.000000e-09

HD3_V0 = 4.999994e-01 for AT = 4.000000e-09

HD4_V0 = 4.999994e-01 for AT = 4.000000e-09

HD5_V0 = 4.999994e-01 for AT = 4.000000e-09

HD6_V0 = 4.105697e-07 for AT = 4.000000e-09

HD0_V10 = 0.000000e+00 FAILED for AT = 5.400000e-08

HD1_V10 = 0.000000e+00 FAILED for AT = 5.400000e-08

HD2_V10 = 0.000000e+00 FAILED for AT = 5.400000e-08

HD3_V10 = 0.000000e+00 FAILED for AT = 5.400000e-08

HD4_V10 = 0.000000e+00 FAILED for AT = 5.400000e-08

HD5_V10 = 0.000000e+00 FAILED for AT = 5.400000e-08

HD6_V10 = 0.000000e+00 FAILED for AT = 5.400000e-08

HD0_V20 = 0.000000e+00 FAILED for AT = 1.040000e-07

HD1_V20 = 0.000000e+00 FAILED for AT = 1.040000e-07

HD2_V20 = 0.000000e+00 FAILED for AT = 1.040000e-07

HD3_V20 = 0.000000e+00 FAILED for AT = 1.040000e-07

HD4_V20 = 0.000000e+00 FAILED for AT = 1.040000e-07

HD5_V20 = 0.000000e+00 FAILED for AT = 1.040000e-07

HD6_V20 = 0.000000e+00 FAILED for AT = 1.040000e-07

HD0_V30 = 0.000000e+00 FAILED for AT = 1.540000e-07

HD1_V30 = 0.000000e+00 FAILED for AT = 1.540000e-07

HD2_V30 = 0.000000e+00 FAILED for AT = 1.540000e-07

HD3_V30 = 0.000000e+00 FAILED for AT = 1.540000e-07

HD4_V30 = 0.000000e+00 FAILED for AT = 1.540000e-07

HD5_V30 = 0.000000e+00 FAILED for AT = 1.540000e-07

HD6_V30 = 0.000000e+00 FAILED for AT = 1.540000e-07

HD0_V40 = 0.000000e+00 FAILED for AT = 2.040000e-07

HD1_V40 = 0.000000e+00 FAILED for AT = 2.040000e-07

HD2_V40 = 0.000000e+00 FAILED for AT = 2.040000e-07

HD3_V40 = 0.000000e+00 FAILED for AT = 2.040000e-07

HD4_V40 = 0.000000e+00 FAILED for AT = 2.040000e-07

HD5_V40 = 0.000000e+00 FAILED for AT = 2.040000e-07

HD6_V40 = 0.000000e+00 FAILED for AT = 2.040000e-07

HD0_V50 = 0.000000e+00 FAILED for AT = 2.540000e-07

HD1_V50 = 0.000000e+00 FAILED for AT = 2.540000e-07

HD2_V50 = 0.000000e+00 FAILED for AT = 2.540000e-07

HD3_V50 = 0.000000e+00 FAILED for AT = 2.540000e-07

HD4_V50 = 0.000000e+00 FAILED for AT = 2.540000e-07

HD5_V50 = 0.000000e+00 FAILED for AT = 2.540000e-07

HD6_V50 = 0.000000e+00 FAILED for AT = 2.540000e-07

HD0_V60 = 0.000000e+00 FAILED for AT = 3.040000e-07

HD1_V60 = 0.000000e+00 FAILED for AT = 3.040000e-07

HD2_V60 = 0.000000e+00 FAILED for AT = 3.040000e-07

HD3_V60 = 0.000000e+00 FAILED for AT = 3.040000e-07

HD4_V60 = 0.000000e+00 FAILED for AT = 3.040000e-07

HD5_V60 = 0.000000e+00 FAILED for AT = 3.040000e-07

HD6_V60 = 0.000000e+00 FAILED for AT = 3.040000e-07

HD0_V70 = 0.000000e+00 FAILED for AT = 3.540000e-07

HD1_V70 = 0.000000e+00 FAILED for AT = 3.540000e-07

HD2_V70 = 0.000000e+00 FAILED for AT = 3.540000e-07

HD3_V70 = 0.000000e+00 FAILED for AT = 3.540000e-07

HD4_V70 = 0.000000e+00 FAILED for AT = 3.540000e-07

HD5_V70 = 0.000000e+00 FAILED for AT = 3.540000e-07

HD6_V70 = 0.000000e+00 FAILED for AT = 3.540000e-07

HD0_V80 = 0.000000e+00 FAILED for AT = 4.040000e-07

HD1_V80 = 0.000000e+00 FAILED for AT = 4.040000e-07

HD2_V80 = 0.000000e+00 FAILED for AT = 4.040000e-07

HD3_V80 = 0.000000e+00 FAILED for AT = 4.040000e-07

HD4_V80 = 0.000000e+00 FAILED for AT = 4.040000e-07

HD5_V80 = 0.000000e+00 FAILED for AT = 4.040000e-07

HD6_V80 = 0.000000e+00 FAILED for AT = 4.040000e-07

HD0_V90 = 0.000000e+00 FAILED for AT = 4.540000e-07

HD1_V90 = 0.000000e+00 FAILED for AT = 4.540000e-07

HD2_V90 = 0.000000e+00 FAILED for AT = 4.540000e-07

HD3_V90 = 0.000000e+00 FAILED for AT = 4.540000e-07

HD4_V90 = 0.000000e+00 FAILED for AT = 4.540000e-07

HD5_V90 = 0.000000e+00 FAILED for AT = 4.540000e-07

HD6_V90 = 0.000000e+00 FAILED for AT = 4.540000e-07

HD0_V100 = 0.000000e+00 FAILED for AT = 5.040000e-07

HD1_V100 = 0.000000e+00 FAILED for AT = 5.040000e-07

HD2_V100 = 0.000000e+00 FAILED for AT = 5.040000e-07

HD3_V100 = 0.000000e+00 FAILED for AT = 5.040000e-07

HD4_V100 = 0.000000e+00 FAILED for AT = 5.040000e-07

HD5_V100 = 0.000000e+00 FAILED for AT = 5.040000e-07

HD6_V100 = 0.000000e+00 FAILED for AT = 5.040000e-07

HD0_V110 = 0.000000e+00 FAILED for AT = 5.540000e-07

HD1_V110 = 0.000000e+00 FAILED for AT = 5.540000e-07

HD2_V110 = 0.000000e+00 FAILED for AT = 5.540000e-07

HD3_V110 = 0.000000e+00 FAILED for AT = 5.540000e-07

HD4_V110 = 0.000000e+00 FAILED for AT = 5.540000e-07

HD5_V110 = 0.000000e+00 FAILED for AT = 5.540000e-07

HD6_V110 = 0.000000e+00 FAILED for AT = 5.540000e-07

HD0_V120 = 0.000000e+00 FAILED for AT = 6.040000e-07

HD1_V120 = 0.000000e+00 FAILED for AT = 6.040000e-07

HD2_V120 = 0.000000e+00 FAILED for AT = 6.040000e-07

HD3_V120 = 0.000000e+00 FAILED for AT = 6.040000e-07

HD4_V120 = 0.000000e+00 FAILED for AT = 6.040000e-07

HD5_V120 = 0.000000e+00 FAILED for AT = 6.040000e-07

HD6_V120 = 0.000000e+00 FAILED for AT = 6.040000e-07

HD0_V130 = 0.000000e+00 FAILED for AT = 6.540000e-07

HD1_V130 = 0.000000e+00 FAILED for AT = 6.540000e-07

HD2_V130 = 0.000000e+00 FAILED for AT = 6.540000e-07

HD3_V130 = 0.000000e+00 FAILED for AT = 6.540000e-07

HD4_V130 = 0.000000e+00 FAILED for AT = 6.540000e-07

HD5_V130 = 0.000000e+00 FAILED for AT = 6.540000e-07

HD6_V130 = 0.000000e+00 FAILED for AT = 6.540000e-07

HD0_V140 = 0.000000e+00 FAILED for AT = 7.040000e-07

HD1_V140 = 0.000000e+00 FAILED for AT = 7.040000e-07

HD2_V140 = 0.000000e+00 FAILED for AT = 7.040000e-07

HD3_V140 = 0.000000e+00 FAILED for AT = 7.040000e-07

HD4_V140 = 0.000000e+00 FAILED for AT = 7.040000e-07

HD5_V140 = 0.000000e+00 FAILED for AT = 7.040000e-07

HD6_V140 = 0.000000e+00 FAILED for AT = 7.040000e-07

HD0_V150 = 0.000000e+00 FAILED for AT = 7.540000e-07

HD1_V150 = 0.000000e+00 FAILED for AT = 7.540000e-07

HD2_V150 = 0.000000e+00 FAILED for AT = 7.540000e-07

HD3_V150 = 0.000000e+00 FAILED for AT = 7.540000e-07

HD4_V150 = 0.000000e+00 FAILED for AT = 7.540000e-07

HD5_V150 = 0.000000e+00 FAILED for AT = 7.540000e-07

HD6_V150 = 0.000000e+00 FAILED for AT = 7.540000e-07

HD0_V160 = 0.000000e+00 FAILED for AT = 8.040000e-07

HD1_V160 = 0.000000e+00 FAILED for AT = 8.040000e-07

HD2_V160 = 0.000000e+00 FAILED for AT = 8.040000e-07

HD3_V160 = 0.000000e+00 FAILED for AT = 8.040000e-07

HD4_V160 = 0.000000e+00 FAILED for AT = 8.040000e-07

HD5_V160 = 0.000000e+00 FAILED for AT = 8.040000e-07

HD6_V160 = 0.000000e+00 FAILED for AT = 8.040000e-07

HD0_V170 = 0.000000e+00 FAILED for AT = 8.540000e-07

HD1_V170 = 0.000000e+00 FAILED for AT = 8.540000e-07

HD2_V170 = 0.000000e+00 FAILED for AT = 8.540000e-07

HD3_V170 = 0.000000e+00 FAILED for AT = 8.540000e-07

HD4_V170 = 0.000000e+00 FAILED for AT = 8.540000e-07

HD5_V170 = 0.000000e+00 FAILED for AT = 8.540000e-07

HD6_V170 = 0.000000e+00 FAILED for AT = 8.540000e-07

HD0_V180 = 0.000000e+00 FAILED for AT = 9.040000e-07

HD1_V180 = 0.000000e+00 FAILED for AT = 9.040000e-07

HD2_V180 = 0.000000e+00 FAILED for AT = 9.040000e-07

HD3_V180 = 0.000000e+00 FAILED for AT = 9.040000e-07

HD4_V180 = 0.000000e+00 FAILED for AT = 9.040000e-07

HD5_V180 = 0.000000e+00 FAILED for AT = 9.040000e-07

HD6_V180 = 0.000000e+00 FAILED for AT = 9.040000e-07

HD0_V190 = 0.000000e+00 FAILED for AT = 9.540000e-07

HD1_V190 = 0.000000e+00 FAILED for AT = 9.540000e-07

HD2_V190 = 0.000000e+00 FAILED for AT = 9.540000e-07

HD3_V190 = 0.000000e+00 FAILED for AT = 9.540000e-07

HD4_V190 = 0.000000e+00 FAILED for AT = 9.540000e-07

HD5_V190 = 0.000000e+00 FAILED for AT = 9.540000e-07

HD6_V190 = 0.000000e+00 FAILED for AT = 9.540000e-07

HD0_V200 = 0.000000e+00 FAILED for AT = 1.004000e-06

HD1_V200 = 0.000000e+00 FAILED for AT = 1.004000e-06

HD2_V200 = 0.000000e+00 FAILED for AT = 1.004000e-06

HD3_V200 = 0.000000e+00 FAILED for AT = 1.004000e-06

HD4_V200 = 0.000000e+00 FAILED for AT = 1.004000e-06

HD5_V200 = 0.000000e+00 FAILED for AT = 1.004000e-06

HD6_V200 = 0.000000e+00 FAILED for AT = 1.004000e-06

HD0_V210 = 0.000000e+00 FAILED for AT = 1.054000e-06

HD1_V210 = 0.000000e+00 FAILED for AT = 1.054000e-06

HD2_V210 = 0.000000e+00 FAILED for AT = 1.054000e-06

HD3_V210 = 0.000000e+00 FAILED for AT = 1.054000e-06

HD4_V210 = 0.000000e+00 FAILED for AT = 1.054000e-06

HD5_V210 = 0.000000e+00 FAILED for AT = 1.054000e-06

HD6_V210 = 0.000000e+00 FAILED for AT = 1.054000e-06

HD0_V220 = 0.000000e+00 FAILED for AT = 1.104000e-06

HD1_V220 = 0.000000e+00 FAILED for AT = 1.104000e-06

HD2_V220 = 0.000000e+00 FAILED for AT = 1.104000e-06

HD3_V220 = 0.000000e+00 FAILED for AT = 1.104000e-06

HD4_V220 = 0.000000e+00 FAILED for AT = 1.104000e-06

HD5_V220 = 0.000000e+00 FAILED for AT = 1.104000e-06

HD6_V220 = 0.000000e+00 FAILED for AT = 1.104000e-06

HD0_V230 = 0.000000e+00 FAILED for AT = 1.154000e-06

HD1_V230 = 0.000000e+00 FAILED for AT = 1.154000e-06

HD2_V230 = 0.000000e+00 FAILED for AT = 1.154000e-06

HD3_V230 = 0.000000e+00 FAILED for AT = 1.154000e-06

HD4_V230 = 0.000000e+00 FAILED for AT = 1.154000e-06

HD5_V230 = 0.000000e+00 FAILED for AT = 1.154000e-06

HD6_V230 = 0.000000e+00 FAILED for AT = 1.154000e-06

HD0_V240 = 0.000000e+00 FAILED for AT = 1.204000e-06

HD1_V240 = 0.000000e+00 FAILED for AT = 1.204000e-06

HD2_V240 = 0.000000e+00 FAILED for AT = 1.204000e-06

HD3_V240 = 0.000000e+00 FAILED for AT = 1.204000e-06

HD4_V240 = 0.000000e+00 FAILED for AT = 1.204000e-06

HD5_V240 = 0.000000e+00 FAILED for AT = 1.204000e-06

HD6_V240 = 0.000000e+00 FAILED for AT = 1.204000e-06

HD0_V250 = 0.000000e+00 FAILED for AT = 1.254000e-06

HD1_V250 = 0.000000e+00 FAILED for AT = 1.254000e-06

HD2_V250 = 0.000000e+00 FAILED for AT = 1.254000e-06

HD3_V250 = 0.000000e+00 FAILED for AT = 1.254000e-06

HD4_V250 = 0.000000e+00 FAILED for AT = 1.254000e-06

HD5_V250 = 0.000000e+00 FAILED for AT = 1.254000e-06

HD6_V250 = 0.000000e+00 FAILED for AT = 1.254000e-06

HD0_V260 = 0.000000e+00 FAILED for AT = 1.304000e-06

HD1_V260 = 0.000000e+00 FAILED for AT = 1.304000e-06

HD2_V260 = 0.000000e+00 FAILED for AT = 1.304000e-06

HD3_V260 = 0.000000e+00 FAILED for AT = 1.304000e-06

HD4_V260 = 0.000000e+00 FAILED for AT = 1.304000e-06

HD5_V260 = 0.000000e+00 FAILED for AT = 1.304000e-06

HD6_V260 = 0.000000e+00 FAILED for AT = 1.304000e-06

HD0_V270 = 0.000000e+00 FAILED for AT = 1.354000e-06

HD1_V270 = 0.000000e+00 FAILED for AT = 1.354000e-06

HD2_V270 = 0.000000e+00 FAILED for AT = 1.354000e-06

HD3_V270 = 0.000000e+00 FAILED for AT = 1.354000e-06

HD4_V270 = 0.000000e+00 FAILED for AT = 1.354000e-06

HD5_V270 = 0.000000e+00 FAILED for AT = 1.354000e-06

HD6_V270 = 0.000000e+00 FAILED for AT = 1.354000e-06

HD0_V280 = 0.000000e+00 FAILED for AT = 1.404000e-06

HD1_V280 = 0.000000e+00 FAILED for AT = 1.404000e-06

HD2_V280 = 0.000000e+00 FAILED for AT = 1.404000e-06

HD3_V280 = 0.000000e+00 FAILED for AT = 1.404000e-06

HD4_V280 = 0.000000e+00 FAILED for AT = 1.404000e-06

HD5_V280 = 0.000000e+00 FAILED for AT = 1.404000e-06

HD6_V280 = 0.000000e+00 FAILED for AT = 1.404000e-06

HD0_V290 = 0.000000e+00 FAILED for AT = 1.454000e-06

HD1_V290 = 0.000000e+00 FAILED for AT = 1.454000e-06

HD2_V290 = 0.000000e+00 FAILED for AT = 1.454000e-06

HD3_V290 = 0.000000e+00 FAILED for AT = 1.454000e-06

HD4_V290 = 0.000000e+00 FAILED for AT = 1.454000e-06

HD5_V290 = 0.000000e+00 FAILED for AT = 1.454000e-06

HD6_V290 = 0.000000e+00 FAILED for AT = 1.454000e-06

HD0_V300 = 0.000000e+00 FAILED for AT = 1.504000e-06

HD1_V300 = 0.000000e+00 FAILED for AT = 1.504000e-06

HD2_V300 = 0.000000e+00 FAILED for AT = 1.504000e-06

HD3_V300 = 0.000000e+00 FAILED for AT = 1.504000e-06

HD4_V300 = 0.000000e+00 FAILED for AT = 1.504000e-06

HD5_V300 = 0.000000e+00 FAILED for AT = 1.504000e-06

HD6_V300 = 0.000000e+00 FAILED for AT = 1.504000e-06

HD0_V310 = 0.000000e+00 FAILED for AT = 1.554000e-06

HD1_V310 = 0.000000e+00 FAILED for AT = 1.554000e-06

HD2_V310 = 0.000000e+00 FAILED for AT = 1.554000e-06

HD3_V310 = 0.000000e+00 FAILED for AT = 1.554000e-06

HD4_V310 = 0.000000e+00 FAILED for AT = 1.554000e-06

HD5_V310 = 0.000000e+00 FAILED for AT = 1.554000e-06

HD6_V310 = 0.000000e+00 FAILED for AT = 1.554000e-06

HD0_V320 = 0.000000e+00 FAILED for AT = 1.604000e-06

HD1_V320 = 0.000000e+00 FAILED for AT = 1.604000e-06

HD2_V320 = 0.000000e+00 FAILED for AT = 1.604000e-06

HD3_V320 = 0.000000e+00 FAILED for AT = 1.604000e-06

HD4_V320 = 0.000000e+00 FAILED for AT = 1.604000e-06

HD5_V320 = 0.000000e+00 FAILED for AT = 1.604000e-06

HD6_V320 = 0.000000e+00 FAILED for AT = 1.604000e-06

HD0_V330 = 0.000000e+00 FAILED for AT = 1.654000e-06

HD1_V330 = 0.000000e+00 FAILED for AT = 1.654000e-06

HD2_V330 = 0.000000e+00 FAILED for AT = 1.654000e-06

HD3_V330 = 0.000000e+00 FAILED for AT = 1.654000e-06

HD4_V330 = 0.000000e+00 FAILED for AT = 1.654000e-06

HD5_V330 = 0.000000e+00 FAILED for AT = 1.654000e-06

HD6_V330 = 0.000000e+00 FAILED for AT = 1.654000e-06

HD0_V340 = 0.000000e+00 FAILED for AT = 1.704000e-06

HD1_V340 = 0.000000e+00 FAILED for AT = 1.704000e-06

HD2_V340 = 0.000000e+00 FAILED for AT = 1.704000e-06

HD3_V340 = 0.000000e+00 FAILED for AT = 1.704000e-06

HD4_V340 = 0.000000e+00 FAILED for AT = 1.704000e-06

HD5_V340 = 0.000000e+00 FAILED for AT = 1.704000e-06

HD6_V340 = 0.000000e+00 FAILED for AT = 1.704000e-06

HD0_V350 = 0.000000e+00 FAILED for AT = 1.754000e-06

HD1_V350 = 0.000000e+00 FAILED for AT = 1.754000e-06

HD2_V350 = 0.000000e+00 FAILED for AT = 1.754000e-06

HD3_V350 = 0.000000e+00 FAILED for AT = 1.754000e-06

HD4_V350 = 0.000000e+00 FAILED for AT = 1.754000e-06

HD5_V350 = 0.000000e+00 FAILED for AT = 1.754000e-06

HD6_V350 = 0.000000e+00 FAILED for AT = 1.754000e-06

HD0_V360 = 0.000000e+00 FAILED for AT = 1.804000e-06

HD1_V360 = 0.000000e+00 FAILED for AT = 1.804000e-06

HD2_V360 = 0.000000e+00 FAILED for AT = 1.804000e-06

HD3_V360 = 0.000000e+00 FAILED for AT = 1.804000e-06

HD4_V360 = 0.000000e+00 FAILED for AT = 1.804000e-06

HD5_V360 = 0.000000e+00 FAILED for AT = 1.804000e-06

HD6_V360 = 0.000000e+00 FAILED for AT = 1.804000e-06

HD0_V370 = 0.000000e+00 FAILED for AT = 1.854000e-06

HD1_V370 = 0.000000e+00 FAILED for AT = 1.854000e-06

HD2_V370 = 0.000000e+00 FAILED for AT = 1.854000e-06

HD3_V370 = 0.000000e+00 FAILED for AT = 1.854000e-06

HD4_V370 = 0.000000e+00 FAILED for AT = 1.854000e-06

HD5_V370 = 0.000000e+00 FAILED for AT = 1.854000e-06

HD6_V370 = 0.000000e+00 FAILED for AT = 1.854000e-06

HD0_V380 = 0.000000e+00 FAILED for AT = 1.904000e-06

HD1_V380 = 0.000000e+00 FAILED for AT = 1.904000e-06

HD2_V380 = 0.000000e+00 FAILED for AT = 1.904000e-06

HD3_V380 = 0.000000e+00 FAILED for AT = 1.904000e-06

HD4_V380 = 0.000000e+00 FAILED for AT = 1.904000e-06

HD5_V380 = 0.000000e+00 FAILED for AT = 1.904000e-06

HD6_V380 = 0.000000e+00 FAILED for AT = 1.904000e-06

HD0_V390 = 0.000000e+00 FAILED for AT = 1.954000e-06

HD1_V390 = 0.000000e+00 FAILED for AT = 1.954000e-06

HD2_V390 = 0.000000e+00 FAILED for AT = 1.954000e-06

HD3_V390 = 0.000000e+00 FAILED for AT = 1.954000e-06

HD4_V390 = 0.000000e+00 FAILED for AT = 1.954000e-06

HD5_V390 = 0.000000e+00 FAILED for AT = 1.954000e-06

HD6_V390 = 0.000000e+00 FAILED for AT = 1.954000e-06

HD0_V400 = 0.000000e+00 FAILED for AT = 2.004000e-06

HD1_V400 = 0.000000e+00 FAILED for AT = 2.004000e-06

HD2_V400 = 0.000000e+00 FAILED for AT = 2.004000e-06

HD3_V400 = 0.000000e+00 FAILED for AT = 2.004000e-06

HD4_V400 = 0.000000e+00 FAILED for AT = 2.004000e-06

HD5_V400 = 0.000000e+00 FAILED for AT = 2.004000e-06

HD6_V400 = 0.000000e+00 FAILED for AT = 2.004000e-06

HD0_V410 = 0.000000e+00 FAILED for AT = 2.054000e-06

HD1_V410 = 0.000000e+00 FAILED for AT = 2.054000e-06

HD2_V410 = 0.000000e+00 FAILED for AT = 2.054000e-06

HD3_V410 = 0.000000e+00 FAILED for AT = 2.054000e-06

HD4_V410 = 0.000000e+00 FAILED for AT = 2.054000e-06

HD5_V410 = 0.000000e+00 FAILED for AT = 2.054000e-06

HD6_V410 = 0.000000e+00 FAILED for AT = 2.054000e-06

HD0_V420 = 0.000000e+00 FAILED for AT = 2.104000e-06

HD1_V420 = 0.000000e+00 FAILED for AT = 2.104000e-06

HD2_V420 = 0.000000e+00 FAILED for AT = 2.104000e-06

HD3_V420 = 0.000000e+00 FAILED for AT = 2.104000e-06

HD4_V420 = 0.000000e+00 FAILED for AT = 2.104000e-06

HD5_V420 = 0.000000e+00 FAILED for AT = 2.104000e-06

HD6_V420 = 0.000000e+00 FAILED for AT = 2.104000e-06

HD0_V430 = 0.000000e+00 FAILED for AT = 2.154000e-06

HD1_V430 = 0.000000e+00 FAILED for AT = 2.154000e-06

HD2_V430 = 0.000000e+00 FAILED for AT = 2.154000e-06

HD3_V430 = 0.000000e+00 FAILED for AT = 2.154000e-06

HD4_V430 = 0.000000e+00 FAILED for AT = 2.154000e-06

HD5_V430 = 0.000000e+00 FAILED for AT = 2.154000e-06

HD6_V430 = 0.000000e+00 FAILED for AT = 2.154000e-06

HD0_V440 = 0.000000e+00 FAILED for AT = 2.204000e-06

HD1_V440 = 0.000000e+00 FAILED for AT = 2.204000e-06

HD2_V440 = 0.000000e+00 FAILED for AT = 2.204000e-06

HD3_V440 = 0.000000e+00 FAILED for AT = 2.204000e-06

HD4_V440 = 0.000000e+00 FAILED for AT = 2.204000e-06

HD5_V440 = 0.000000e+00 FAILED for AT = 2.204000e-06

HD6_V440 = 0.000000e+00 FAILED for AT = 2.204000e-06

HD0_V450 = 0.000000e+00 FAILED for AT = 2.254000e-06

HD1_V450 = 0.000000e+00 FAILED for AT = 2.254000e-06

HD2_V450 = 0.000000e+00 FAILED for AT = 2.254000e-06

HD3_V450 = 0.000000e+00 FAILED for AT = 2.254000e-06

HD4_V450 = 0.000000e+00 FAILED for AT = 2.254000e-06

HD5_V450 = 0.000000e+00 FAILED for AT = 2.254000e-06

HD6_V450 = 0.000000e+00 FAILED for AT = 2.254000e-06

HD0_V460 = 0.000000e+00 FAILED for AT = 2.304000e-06

HD1_V460 = 0.000000e+00 FAILED for AT = 2.304000e-06

HD2_V460 = 0.000000e+00 FAILED for AT = 2.304000e-06

HD3_V460 = 0.000000e+00 FAILED for AT = 2.304000e-06

HD4_V460 = 0.000000e+00 FAILED for AT = 2.304000e-06

HD5_V460 = 0.000000e+00 FAILED for AT = 2.304000e-06

HD6_V460 = 0.000000e+00 FAILED for AT = 2.304000e-06

HD0_V470 = 0.000000e+00 FAILED for AT = 2.354000e-06

HD1_V470 = 0.000000e+00 FAILED for AT = 2.354000e-06

HD2_V470 = 0.000000e+00 FAILED for AT = 2.354000e-06

HD3_V470 = 0.000000e+00 FAILED for AT = 2.354000e-06

HD4_V470 = 0.000000e+00 FAILED for AT = 2.354000e-06

HD5_V470 = 0.000000e+00 FAILED for AT = 2.354000e-06

HD6_V470 = 0.000000e+00 FAILED for AT = 2.354000e-06

HD0_V480 = 0.000000e+00 FAILED for AT = 2.404000e-06

HD1_V480 = 0.000000e+00 FAILED for AT = 2.404000e-06

HD2_V480 = 0.000000e+00 FAILED for AT = 2.404000e-06

HD3_V480 = 0.000000e+00 FAILED for AT = 2.404000e-06

HD4_V480 = 0.000000e+00 FAILED for AT = 2.404000e-06

HD5_V480 = 0.000000e+00 FAILED for AT = 2.404000e-06

HD6_V480 = 0.000000e+00 FAILED for AT = 2.404000e-06

HD0_V490 = 0.000000e+00 FAILED for AT = 2.454000e-06

HD1_V490 = 0.000000e+00 FAILED for AT = 2.454000e-06

HD2_V490 = 0.000000e+00 FAILED for AT = 2.454000e-06

HD3_V490 = 0.000000e+00 FAILED for AT = 2.454000e-06

HD4_V490 = 0.000000e+00 FAILED for AT = 2.454000e-06

HD5_V490 = 0.000000e+00 FAILED for AT = 2.454000e-06

HD6_V490 = 0.000000e+00 FAILED for AT = 2.454000e-06

HD0_V500 = 0.000000e+00 FAILED for AT = 2.504000e-06

HD1_V500 = 0.000000e+00 FAILED for AT = 2.504000e-06

HD2_V500 = 0.000000e+00 FAILED for AT = 2.504000e-06

HD3_V500 = 0.000000e+00 FAILED for AT = 2.504000e-06

HD4_V500 = 0.000000e+00 FAILED for AT = 2.504000e-06

HD5_V500 = 0.000000e+00 FAILED for AT = 2.504000e-06

HD6_V500 = 0.000000e+00 FAILED for AT = 2.504000e-06

HD0_V510 = 0.000000e+00 FAILED for AT = 2.554000e-06

HD1_V510 = 0.000000e+00 FAILED for AT = 2.554000e-06

HD2_V510 = 0.000000e+00 FAILED for AT = 2.554000e-06

HD3_V510 = 0.000000e+00 FAILED for AT = 2.554000e-06

HD4_V510 = 0.000000e+00 FAILED for AT = 2.554000e-06

HD5_V510 = 0.000000e+00 FAILED for AT = 2.554000e-06

HD6_V510 = 0.000000e+00 FAILED for AT = 2.554000e-06

HD0_V520 = 0.000000e+00 FAILED for AT = 2.604000e-06

HD1_V520 = 0.000000e+00 FAILED for AT = 2.604000e-06

HD2_V520 = 0.000000e+00 FAILED for AT = 2.604000e-06

HD3_V520 = 0.000000e+00 FAILED for AT = 2.604000e-06

HD4_V520 = 0.000000e+00 FAILED for AT = 2.604000e-06

HD5_V520 = 0.000000e+00 FAILED for AT = 2.604000e-06

HD6_V520 = 0.000000e+00 FAILED for AT = 2.604000e-06

HD0_V530 = 0.000000e+00 FAILED for AT = 2.654000e-06

HD1_V530 = 0.000000e+00 FAILED for AT = 2.654000e-06

HD2_V530 = 0.000000e+00 FAILED for AT = 2.654000e-06

HD3_V530 = 0.000000e+00 FAILED for AT = 2.654000e-06

HD4_V530 = 0.000000e+00 FAILED for AT = 2.654000e-06

HD5_V530 = 0.000000e+00 FAILED for AT = 2.654000e-06

HD6_V530 = 0.000000e+00 FAILED for AT = 2.654000e-06

HD0_V540 = 0.000000e+00 FAILED for AT = 2.704000e-06

HD1_V540 = 0.000000e+00 FAILED for AT = 2.704000e-06

HD2_V540 = 0.000000e+00 FAILED for AT = 2.704000e-06

HD3_V540 = 0.000000e+00 FAILED for AT = 2.704000e-06

HD4_V540 = 0.000000e+00 FAILED for AT = 2.704000e-06

HD5_V540 = 0.000000e+00 FAILED for AT = 2.704000e-06

HD6_V540 = 0.000000e+00 FAILED for AT = 2.704000e-06

HD0_V550 = 0.000000e+00 FAILED for AT = 2.754000e-06

HD1_V550 = 0.000000e+00 FAILED for AT = 2.754000e-06

HD2_V550 = 0.000000e+00 FAILED for AT = 2.754000e-06

HD3_V550 = 0.000000e+00 FAILED for AT = 2.754000e-06

HD4_V550 = 0.000000e+00 FAILED for AT = 2.754000e-06

HD5_V550 = 0.000000e+00 FAILED for AT = 2.754000e-06

HD6_V550 = 0.000000e+00 FAILED for AT = 2.754000e-06

HD0_V560 = 0.000000e+00 FAILED for AT = 2.804000e-06

HD1_V560 = 0.000000e+00 FAILED for AT = 2.804000e-06

HD2_V560 = 0.000000e+00 FAILED for AT = 2.804000e-06

HD3_V560 = 0.000000e+00 FAILED for AT = 2.804000e-06

HD4_V560 = 0.000000e+00 FAILED for AT = 2.804000e-06

HD5_V560 = 0.000000e+00 FAILED for AT = 2.804000e-06

HD6_V560 = 0.000000e+00 FAILED for AT = 2.804000e-06

HD0_V570 = 0.000000e+00 FAILED for AT = 2.854000e-06

HD1_V570 = 0.000000e+00 FAILED for AT = 2.854000e-06

HD2_V570 = 0.000000e+00 FAILED for AT = 2.854000e-06

HD3_V570 = 0.000000e+00 FAILED for AT = 2.854000e-06

HD4_V570 = 0.000000e+00 FAILED for AT = 2.854000e-06

HD5_V570 = 0.000000e+00 FAILED for AT = 2.854000e-06

HD6_V570 = 0.000000e+00 FAILED for AT = 2.854000e-06

HD0_V580 = 0.000000e+00 FAILED for AT = 2.904000e-06

HD1_V580 = 0.000000e+00 FAILED for AT = 2.904000e-06

HD2_V580 = 0.000000e+00 FAILED for AT = 2.904000e-06

HD3_V580 = 0.000000e+00 FAILED for AT = 2.904000e-06

HD4_V580 = 0.000000e+00 FAILED for AT = 2.904000e-06

HD5_V580 = 0.000000e+00 FAILED for AT = 2.904000e-06

HD6_V580 = 0.000000e+00 FAILED for AT = 2.904000e-06

HD0_V590 = 0.000000e+00 FAILED for AT = 2.954000e-06

HD1_V590 = 0.000000e+00 FAILED for AT = 2.954000e-06

HD2_V590 = 0.000000e+00 FAILED for AT = 2.954000e-06

HD3_V590 = 0.000000e+00 FAILED for AT = 2.954000e-06

HD4_V590 = 0.000000e+00 FAILED for AT = 2.954000e-06

HD5_V590 = 0.000000e+00 FAILED for AT = 2.954000e-06

HD6_V590 = 0.000000e+00 FAILED for AT = 2.954000e-06

HD0_V600 = 0.000000e+00 FAILED for AT = 3.004000e-06

HD1_V600 = 0.000000e+00 FAILED for AT = 3.004000e-06

HD2_V600 = 0.000000e+00 FAILED for AT = 3.004000e-06

HD3_V600 = 0.000000e+00 FAILED for AT = 3.004000e-06

HD4_V600 = 0.000000e+00 FAILED for AT = 3.004000e-06

HD5_V600 = 0.000000e+00 FAILED for AT = 3.004000e-06

HD6_V600 = 0.000000e+00 FAILED for AT = 3.004000e-06

HD0_V610 = 0.000000e+00 FAILED for AT = 3.054000e-06

HD1_V610 = 0.000000e+00 FAILED for AT = 3.054000e-06

HD2_V610 = 0.000000e+00 FAILED for AT = 3.054000e-06

HD3_V610 = 0.000000e+00 FAILED for AT = 3.054000e-06

HD4_V610 = 0.000000e+00 FAILED for AT = 3.054000e-06

HD5_V610 = 0.000000e+00 FAILED for AT = 3.054000e-06

HD6_V610 = 0.000000e+00 FAILED for AT = 3.054000e-06

HD0_V620 = 0.000000e+00 FAILED for AT = 3.104000e-06

HD1_V620 = 0.000000e+00 FAILED for AT = 3.104000e-06

HD2_V620 = 0.000000e+00 FAILED for AT = 3.104000e-06

HD3_V620 = 0.000000e+00 FAILED for AT = 3.104000e-06

HD4_V620 = 0.000000e+00 FAILED for AT = 3.104000e-06

HD5_V620 = 0.000000e+00 FAILED for AT = 3.104000e-06

HD6_V620 = 0.000000e+00 FAILED for AT = 3.104000e-06

HD0_V630 = 0.000000e+00 FAILED for AT = 3.154000e-06

HD1_V630 = 0.000000e+00 FAILED for AT = 3.154000e-06

HD2_V630 = 0.000000e+00 FAILED for AT = 3.154000e-06

HD3_V630 = 0.000000e+00 FAILED for AT = 3.154000e-06

HD4_V630 = 0.000000e+00 FAILED for AT = 3.154000e-06

HD5_V630 = 0.000000e+00 FAILED for AT = 3.154000e-06

HD6_V630 = 0.000000e+00 FAILED for AT = 3.154000e-06

HD0_V640 = 0.000000e+00 FAILED for AT = 3.204000e-06

HD1_V640 = 0.000000e+00 FAILED for AT = 3.204000e-06

HD2_V640 = 0.000000e+00 FAILED for AT = 3.204000e-06

HD3_V640 = 0.000000e+00 FAILED for AT = 3.204000e-06

HD4_V640 = 0.000000e+00 FAILED for AT = 3.204000e-06

HD5_V640 = 0.000000e+00 FAILED for AT = 3.204000e-06

HD6_V640 = 0.000000e+00 FAILED for AT = 3.204000e-06

HD0_V650 = 0.000000e+00 FAILED for AT = 3.254000e-06

HD1_V650 = 0.000000e+00 FAILED for AT = 3.254000e-06

HD2_V650 = 0.000000e+00 FAILED for AT = 3.254000e-06

HD3_V650 = 0.000000e+00 FAILED for AT = 3.254000e-06

HD4_V650 = 0.000000e+00 FAILED for AT = 3.254000e-06

HD5_V650 = 0.000000e+00 FAILED for AT = 3.254000e-06

HD6_V650 = 0.000000e+00 FAILED for AT = 3.254000e-06

HD0_V660 = 0.000000e+00 FAILED for AT = 3.304000e-06

HD1_V660 = 0.000000e+00 FAILED for AT = 3.304000e-06

HD2_V660 = 0.000000e+00 FAILED for AT = 3.304000e-06

HD3_V660 = 0.000000e+00 FAILED for AT = 3.304000e-06

HD4_V660 = 0.000000e+00 FAILED for AT = 3.304000e-06

HD5_V660 = 0.000000e+00 FAILED for AT = 3.304000e-06

HD6_V660 = 0.000000e+00 FAILED for AT = 3.304000e-06

HD0_V670 = 0.000000e+00 FAILED for AT = 3.354000e-06

HD1_V670 = 0.000000e+00 FAILED for AT = 3.354000e-06

HD2_V670 = 0.000000e+00 FAILED for AT = 3.354000e-06

HD3_V670 = 0.000000e+00 FAILED for AT = 3.354000e-06

HD4_V670 = 0.000000e+00 FAILED for AT = 3.354000e-06

HD5_V670 = 0.000000e+00 FAILED for AT = 3.354000e-06

HD6_V670 = 0.000000e+00 FAILED for AT = 3.354000e-06

HD0_V680 = 0.000000e+00 FAILED for AT = 3.404000e-06

HD1_V680 = 0.000000e+00 FAILED for AT = 3.404000e-06

HD2_V680 = 0.000000e+00 FAILED for AT = 3.404000e-06

HD3_V680 = 0.000000e+00 FAILED for AT = 3.404000e-06

HD4_V680 = 0.000000e+00 FAILED for AT = 3.404000e-06

HD5_V680 = 0.000000e+00 FAILED for AT = 3.404000e-06

HD6_V680 = 0.000000e+00 FAILED for AT = 3.404000e-06

HD0_V690 = 0.000000e+00 FAILED for AT = 3.454000e-06

HD1_V690 = 0.000000e+00 FAILED for AT = 3.454000e-06

HD2_V690 = 0.000000e+00 FAILED for AT = 3.454000e-06

HD3_V690 = 0.000000e+00 FAILED for AT = 3.454000e-06

HD4_V690 = 0.000000e+00 FAILED for AT = 3.454000e-06

HD5_V690 = 0.000000e+00 FAILED for AT = 3.454000e-06

HD6_V690 = 0.000000e+00 FAILED for AT = 3.454000e-06

HD0_V700 = 0.000000e+00 FAILED for AT = 3.504000e-06

HD1_V700 = 0.000000e+00 FAILED for AT = 3.504000e-06

HD2_V700 = 0.000000e+00 FAILED for AT = 3.504000e-06

HD3_V700 = 0.000000e+00 FAILED for AT = 3.504000e-06

HD4_V700 = 0.000000e+00 FAILED for AT = 3.504000e-06

HD5_V700 = 0.000000e+00 FAILED for AT = 3.504000e-06

HD6_V700 = 0.000000e+00 FAILED for AT = 3.504000e-06

HD0_V710 = 0.000000e+00 FAILED for AT = 3.554000e-06

HD1_V710 = 0.000000e+00 FAILED for AT = 3.554000e-06

HD2_V710 = 0.000000e+00 FAILED for AT = 3.554000e-06

HD3_V710 = 0.000000e+00 FAILED for AT = 3.554000e-06

HD4_V710 = 0.000000e+00 FAILED for AT = 3.554000e-06

HD5_V710 = 0.000000e+00 FAILED for AT = 3.554000e-06

HD6_V710 = 0.000000e+00 FAILED for AT = 3.554000e-06

HD0_V720 = 0.000000e+00 FAILED for AT = 3.604000e-06

HD1_V720 = 0.000000e+00 FAILED for AT = 3.604000e-06

HD2_V720 = 0.000000e+00 FAILED for AT = 3.604000e-06

HD3_V720 = 0.000000e+00 FAILED for AT = 3.604000e-06

HD4_V720 = 0.000000e+00 FAILED for AT = 3.604000e-06

HD5_V720 = 0.000000e+00 FAILED for AT = 3.604000e-06

HD6_V720 = 0.000000e+00 FAILED for AT = 3.604000e-06

HD0_V730 = 0.000000e+00 FAILED for AT = 3.654000e-06

HD1_V730 = 0.000000e+00 FAILED for AT = 3.654000e-06

HD2_V730 = 0.000000e+00 FAILED for AT = 3.654000e-06

HD3_V730 = 0.000000e+00 FAILED for AT = 3.654000e-06

HD4_V730 = 0.000000e+00 FAILED for AT = 3.654000e-06

HD5_V730 = 0.000000e+00 FAILED for AT = 3.654000e-06

HD6_V730 = 0.000000e+00 FAILED for AT = 3.654000e-06

HD0_V740 = 0.000000e+00 FAILED for AT = 3.704000e-06

HD1_V740 = 0.000000e+00 FAILED for AT = 3.704000e-06

HD2_V740 = 0.000000e+00 FAILED for AT = 3.704000e-06

HD3_V740 = 0.000000e+00 FAILED for AT = 3.704000e-06

HD4_V740 = 0.000000e+00 FAILED for AT = 3.704000e-06

HD5_V740 = 0.000000e+00 FAILED for AT = 3.704000e-06

HD6_V740 = 0.000000e+00 FAILED for AT = 3.704000e-06

HD0_V750 = 0.000000e+00 FAILED for AT = 3.754000e-06

HD1_V750 = 0.000000e+00 FAILED for AT = 3.754000e-06

HD2_V750 = 0.000000e+00 FAILED for AT = 3.754000e-06

HD3_V750 = 0.000000e+00 FAILED for AT = 3.754000e-06

HD4_V750 = 0.000000e+00 FAILED for AT = 3.754000e-06

HD5_V750 = 0.000000e+00 FAILED for AT = 3.754000e-06

HD6_V750 = 0.000000e+00 FAILED for AT = 3.754000e-06

HD0_V760 = 0.000000e+00 FAILED for AT = 3.804000e-06

HD1_V760 = 0.000000e+00 FAILED for AT = 3.804000e-06

HD2_V760 = 0.000000e+00 FAILED for AT = 3.804000e-06

HD3_V760 = 0.000000e+00 FAILED for AT = 3.804000e-06

HD4_V760 = 0.000000e+00 FAILED for AT = 3.804000e-06

HD5_V760 = 0.000000e+00 FAILED for AT = 3.804000e-06

HD6_V760 = 0.000000e+00 FAILED for AT = 3.804000e-06

HD0_V770 = 0.000000e+00 FAILED for AT = 3.854000e-06

HD1_V770 = 0.000000e+00 FAILED for AT = 3.854000e-06

HD2_V770 = 0.000000e+00 FAILED for AT = 3.854000e-06

HD3_V770 = 0.000000e+00 FAILED for AT = 3.854000e-06

HD4_V770 = 0.000000e+00 FAILED for AT = 3.854000e-06

HD5_V770 = 0.000000e+00 FAILED for AT = 3.854000e-06

HD6_V770 = 0.000000e+00 FAILED for AT = 3.854000e-06

HD0_V780 = 0.000000e+00 FAILED for AT = 3.904000e-06

HD1_V780 = 0.000000e+00 FAILED for AT = 3.904000e-06

HD2_V780 = 0.000000e+00 FAILED for AT = 3.904000e-06

HD3_V780 = 0.000000e+00 FAILED for AT = 3.904000e-06

HD4_V780 = 0.000000e+00 FAILED for AT = 3.904000e-06

HD5_V780 = 0.000000e+00 FAILED for AT = 3.904000e-06

HD6_V780 = 0.000000e+00 FAILED for AT = 3.904000e-06

HD0_V790 = 0.000000e+00 FAILED for AT = 3.954000e-06

HD1_V790 = 0.000000e+00 FAILED for AT = 3.954000e-06

HD2_V790 = 0.000000e+00 FAILED for AT = 3.954000e-06

HD3_V790 = 0.000000e+00 FAILED for AT = 3.954000e-06

HD4_V790 = 0.000000e+00 FAILED for AT = 3.954000e-06

HD5_V790 = 0.000000e+00 FAILED for AT = 3.954000e-06

HD6_V790 = 0.000000e+00 FAILED for AT = 3.954000e-06

HD0_V800 = 0.000000e+00 FAILED for AT = 4.004000e-06

HD1_V800 = 0.000000e+00 FAILED for AT = 4.004000e-06

HD2_V800 = 0.000000e+00 FAILED for AT = 4.004000e-06

HD3_V800 = 0.000000e+00 FAILED for AT = 4.004000e-06

HD4_V800 = 0.000000e+00 FAILED for AT = 4.004000e-06

HD5_V800 = 0.000000e+00 FAILED for AT = 4.004000e-06

HD6_V800 = 0.000000e+00 FAILED for AT = 4.004000e-06

HD0_V810 = 0.000000e+00 FAILED for AT = 4.054000e-06

HD1_V810 = 0.000000e+00 FAILED for AT = 4.054000e-06

HD2_V810 = 0.000000e+00 FAILED for AT = 4.054000e-06

HD3_V810 = 0.000000e+00 FAILED for AT = 4.054000e-06

HD4_V810 = 0.000000e+00 FAILED for AT = 4.054000e-06

HD5_V810 = 0.000000e+00 FAILED for AT = 4.054000e-06

HD6_V810 = 0.000000e+00 FAILED for AT = 4.054000e-06

HD0_V820 = 0.000000e+00 FAILED for AT = 4.104000e-06

HD1_V820 = 0.000000e+00 FAILED for AT = 4.104000e-06

HD2_V820 = 0.000000e+00 FAILED for AT = 4.104000e-06

HD3_V820 = 0.000000e+00 FAILED for AT = 4.104000e-06

HD4_V820 = 0.000000e+00 FAILED for AT = 4.104000e-06

HD5_V820 = 0.000000e+00 FAILED for AT = 4.104000e-06

HD6_V820 = 0.000000e+00 FAILED for AT = 4.104000e-06

HD0_V830 = 0.000000e+00 FAILED for AT = 4.154000e-06

HD1_V830 = 0.000000e+00 FAILED for AT = 4.154000e-06

HD2_V830 = 0.000000e+00 FAILED for AT = 4.154000e-06

HD3_V830 = 0.000000e+00 FAILED for AT = 4.154000e-06

HD4_V830 = 0.000000e+00 FAILED for AT = 4.154000e-06

HD5_V830 = 0.000000e+00 FAILED for AT = 4.154000e-06

HD6_V830 = 0.000000e+00 FAILED for AT = 4.154000e-06

HD0_V840 = 0.000000e+00 FAILED for AT = 4.204000e-06

HD1_V840 = 0.000000e+00 FAILED for AT = 4.204000e-06

HD2_V840 = 0.000000e+00 FAILED for AT = 4.204000e-06

HD3_V840 = 0.000000e+00 FAILED for AT = 4.204000e-06

HD4_V840 = 0.000000e+00 FAILED for AT = 4.204000e-06

HD5_V840 = 0.000000e+00 FAILED for AT = 4.204000e-06

HD6_V840 = 0.000000e+00 FAILED for AT = 4.204000e-06

HD0_V850 = 0.000000e+00 FAILED for AT = 4.254000e-06

HD1_V850 = 0.000000e+00 FAILED for AT = 4.254000e-06

HD2_V850 = 0.000000e+00 FAILED for AT = 4.254000e-06

HD3_V850 = 0.000000e+00 FAILED for AT = 4.254000e-06

HD4_V850 = 0.000000e+00 FAILED for AT = 4.254000e-06

HD5_V850 = 0.000000e+00 FAILED for AT = 4.254000e-06

HD6_V850 = 0.000000e+00 FAILED for AT = 4.254000e-06

HD0_V860 = 0.000000e+00 FAILED for AT = 4.304000e-06

HD1_V860 = 0.000000e+00 FAILED for AT = 4.304000e-06

HD2_V860 = 0.000000e+00 FAILED for AT = 4.304000e-06

HD3_V860 = 0.000000e+00 FAILED for AT = 4.304000e-06

HD4_V860 = 0.000000e+00 FAILED for AT = 4.304000e-06

HD5_V860 = 0.000000e+00 FAILED for AT = 4.304000e-06

HD6_V860 = 0.000000e+00 FAILED for AT = 4.304000e-06

HD0_V870 = 0.000000e+00 FAILED for AT = 4.354000e-06

HD1_V870 = 0.000000e+00 FAILED for AT = 4.354000e-06

HD2_V870 = 0.000000e+00 FAILED for AT = 4.354000e-06

HD3_V870 = 0.000000e+00 FAILED for AT = 4.354000e-06

HD4_V870 = 0.000000e+00 FAILED for AT = 4.354000e-06

HD5_V870 = 0.000000e+00 FAILED for AT = 4.354000e-06

HD6_V870 = 0.000000e+00 FAILED for AT = 4.354000e-06

HD0_V880 = 0.000000e+00 FAILED for AT = 4.404000e-06

HD1_V880 = 0.000000e+00 FAILED for AT = 4.404000e-06

HD2_V880 = 0.000000e+00 FAILED for AT = 4.404000e-06

HD3_V880 = 0.000000e+00 FAILED for AT = 4.404000e-06

HD4_V880 = 0.000000e+00 FAILED for AT = 4.404000e-06

HD5_V880 = 0.000000e+00 FAILED for AT = 4.404000e-06

HD6_V880 = 0.000000e+00 FAILED for AT = 4.404000e-06

HD0_V890 = 0.000000e+00 FAILED for AT = 4.454000e-06

HD1_V890 = 0.000000e+00 FAILED for AT = 4.454000e-06

HD2_V890 = 0.000000e+00 FAILED for AT = 4.454000e-06

HD3_V890 = 0.000000e+00 FAILED for AT = 4.454000e-06

HD4_V890 = 0.000000e+00 FAILED for AT = 4.454000e-06

HD5_V890 = 0.000000e+00 FAILED for AT = 4.454000e-06

HD6_V890 = 0.000000e+00 FAILED for AT = 4.454000e-06

HD0_V900 = 0.000000e+00 FAILED for AT = 4.504000e-06

HD1_V900 = 0.000000e+00 FAILED for AT = 4.504000e-06

HD2_V900 = 0.000000e+00 FAILED for AT = 4.504000e-06

HD3_V900 = 0.000000e+00 FAILED for AT = 4.504000e-06

HD4_V900 = 0.000000e+00 FAILED for AT = 4.504000e-06

HD5_V900 = 0.000000e+00 FAILED for AT = 4.504000e-06

HD6_V900 = 0.000000e+00 FAILED for AT = 4.504000e-06

HD0_V910 = 0.000000e+00 FAILED for AT = 4.554000e-06

HD1_V910 = 0.000000e+00 FAILED for AT = 4.554000e-06

HD2_V910 = 0.000000e+00 FAILED for AT = 4.554000e-06

HD3_V910 = 0.000000e+00 FAILED for AT = 4.554000e-06

HD4_V910 = 0.000000e+00 FAILED for AT = 4.554000e-06

HD5_V910 = 0.000000e+00 FAILED for AT = 4.554000e-06

HD6_V910 = 0.000000e+00 FAILED for AT = 4.554000e-06

HD0_V920 = 0.000000e+00 FAILED for AT = 4.604000e-06

HD1_V920 = 0.000000e+00 FAILED for AT = 4.604000e-06

HD2_V920 = 0.000000e+00 FAILED for AT = 4.604000e-06

HD3_V920 = 0.000000e+00 FAILED for AT = 4.604000e-06

HD4_V920 = 0.000000e+00 FAILED for AT = 4.604000e-06

HD5_V920 = 0.000000e+00 FAILED for AT = 4.604000e-06

HD6_V920 = 0.000000e+00 FAILED for AT = 4.604000e-06

HD0_V930 = 0.000000e+00 FAILED for AT = 4.654000e-06

HD1_V930 = 0.000000e+00 FAILED for AT = 4.654000e-06

HD2_V930 = 0.000000e+00 FAILED for AT = 4.654000e-06

HD3_V930 = 0.000000e+00 FAILED for AT = 4.654000e-06

HD4_V930 = 0.000000e+00 FAILED for AT = 4.654000e-06

HD5_V930 = 0.000000e+00 FAILED for AT = 4.654000e-06

HD6_V930 = 0.000000e+00 FAILED for AT = 4.654000e-06

HD0_V940 = 0.000000e+00 FAILED for AT = 4.704000e-06

HD1_V940 = 0.000000e+00 FAILED for AT = 4.704000e-06

HD2_V940 = 0.000000e+00 FAILED for AT = 4.704000e-06

HD3_V940 = 0.000000e+00 FAILED for AT = 4.704000e-06

HD4_V940 = 0.000000e+00 FAILED for AT = 4.704000e-06

HD5_V940 = 0.000000e+00 FAILED for AT = 4.704000e-06

HD6_V940 = 0.000000e+00 FAILED for AT = 4.704000e-06

HD0_V950 = 0.000000e+00 FAILED for AT = 4.754000e-06

HD1_V950 = 0.000000e+00 FAILED for AT = 4.754000e-06

HD2_V950 = 0.000000e+00 FAILED for AT = 4.754000e-06

HD3_V950 = 0.000000e+00 FAILED for AT = 4.754000e-06

HD4_V950 = 0.000000e+00 FAILED for AT = 4.754000e-06

HD5_V950 = 0.000000e+00 FAILED for AT = 4.754000e-06

HD6_V950 = 0.000000e+00 FAILED for AT = 4.754000e-06

HD0_V960 = 0.000000e+00 FAILED for AT = 4.804000e-06

HD1_V960 = 0.000000e+00 FAILED for AT = 4.804000e-06

HD2_V960 = 0.000000e+00 FAILED for AT = 4.804000e-06

HD3_V960 = 0.000000e+00 FAILED for AT = 4.804000e-06

HD4_V960 = 0.000000e+00 FAILED for AT = 4.804000e-06

HD5_V960 = 0.000000e+00 FAILED for AT = 4.804000e-06

HD6_V960 = 0.000000e+00 FAILED for AT = 4.804000e-06

HD0_V970 = 0.000000e+00 FAILED for AT = 4.854000e-06

HD1_V970 = 0.000000e+00 FAILED for AT = 4.854000e-06

HD2_V970 = 0.000000e+00 FAILED for AT = 4.854000e-06

HD3_V970 = 0.000000e+00 FAILED for AT = 4.854000e-06

HD4_V970 = 0.000000e+00 FAILED for AT = 4.854000e-06

HD5_V970 = 0.000000e+00 FAILED for AT = 4.854000e-06

HD6_V970 = 0.000000e+00 FAILED for AT = 4.854000e-06

HD0_V980 = 0.000000e+00 FAILED for AT = 4.904000e-06

HD1_V980 = 0.000000e+00 FAILED for AT = 4.904000e-06

HD2_V980 = 0.000000e+00 FAILED for AT = 4.904000e-06

HD3_V980 = 0.000000e+00 FAILED for AT = 4.904000e-06

HD4_V980 = 0.000000e+00 FAILED for AT = 4.904000e-06

HD5_V980 = 0.000000e+00 FAILED for AT = 4.904000e-06

HD6_V980 = 0.000000e+00 FAILED for AT = 4.904000e-06

HD0_V990 = 0.000000e+00 FAILED for AT = 4.954000e-06

HD1_V990 = 0.000000e+00 FAILED for AT = 4.954000e-06

HD2_V990 = 0.000000e+00 FAILED for AT = 4.954000e-06

HD3_V990 = 0.000000e+00 FAILED for AT = 4.954000e-06

HD4_V990 = 0.000000e+00 FAILED for AT = 4.954000e-06

HD5_V990 = 0.000000e+00 FAILED for AT = 4.954000e-06

HD6_V990 = 0.000000e+00 FAILED for AT = 4.954000e-06


***** Total Simulation Solvers Run Time: 7.158 seconds
***** Total Elapsed Run Time:            7.445 seconds
*****
***** End of Xyce(TM) Simulation
*****

Timing summary of 1 processor
                 Stats                   Count       CPU Time              Wall Time
---------------------------------------- ----- --------------------- ---------------------
Xyce                                         1        7.359 (100.0%)        7.448 (100.0%)
  Analysis                                   1        7.092 (96.38%)        7.155 (96.07%)
    Transient                                1        7.092 (96.38%)        7.155 (96.07%)
      Nonlinear Solve                      151        7.039 (95.66%)        7.070 (94.93%)
        Residual                          1929        6.032 (81.98%)        6.054 (81.28%)
        Jacobian                          1648        0.322 ( 4.37%)        0.324 ( 4.35%)
        Linear Solve                      1648        0.569 ( 7.74%)        0.573 ( 7.69%)
      Successful DCOP Steps                  1        0.002 ( 0.03%)        0.003 ( 0.04%)
      Successful Step                      108        0.027 ( 0.37%)        0.034 ( 0.46%)
      Failed Steps                          42        0.000 (<0.01%)        0.000 (<0.01%)
        Nonlinear Failure                   41        0.000 (<0.01%)        0.000 (<0.01%)
  Netlist Import                             1        0.248 ( 3.38%)        0.265 ( 3.56%)
    Parse Context                            1        0.029 ( 0.39%)        0.032 ( 0.43%)
    Distribute Devices                       1        0.168 ( 2.28%)        0.173 ( 2.32%)
    Verify Devices                           1        0.000 (<0.01%)        0.000 (<0.01%)
    Instantiate                              1        0.049 ( 0.67%)        0.051 ( 0.69%)
  Late Initialization                        1        0.016 ( 0.22%)        0.019 ( 0.25%)
    Global Indices                           1        0.003 ( 0.04%)        0.003 ( 0.04%)
  Setup Matrix Structure                     1        0.003 ( 0.04%)        0.004 ( 0.05%)

